
  --CCDC--092525    3D                              

 46 54  0  0  0  0  0  0  0  0999 V2000
   -0.9586    0.6783   -1.4097 Cl     0
    0.5335    2.3331   -0.5179 Ir     0
   -1.1355    2.3574    0.7644 C      0
   -0.1569    1.6050    1.2883 C      0
    0.3819    0.6640    2.2965 C      0
    0.2122    0.3200    3.6137 C      0
    0.9173   -0.7859    4.0780 C      0
    1.7034   -1.5519    3.2535 C      0
    1.8418   -1.2413    1.8758 C      0
    2.5172   -2.0062    0.9020 C      0
    2.4618   -1.6142   -0.4041 C      0
    1.8215   -0.4472   -0.8081 C      0
    1.2339    0.4235    0.1080 C      0
    1.2042   -0.0684    1.4306 C      0
    0.2798    3.6168   -2.0519 C      0
    0.7491    4.5081   -3.1808 C      0
    1.4087    2.5996   -2.2531 C      0
    1.5102    1.6637   -3.4379 C      0
    2.3878    2.7500   -1.0907 C      0
    3.6529    1.9538   -0.8535 C      0
    1.8234    3.7822   -0.1236 C      0
    2.3834    4.1169    1.2410 C      0
    0.5117    4.3010   -0.7074 C      0
   -0.4461    5.2485   -0.0188 C      0
   -2.1587    2.6970    0.8866 H      0
   -0.4432    0.8873    4.2662 H      0
    0.8314   -1.0608    5.1241 H      0
    2.2125   -2.4204    3.6581 H      0
    3.0488   -2.9093    1.1832 H      0
    2.9385   -2.2348   -1.1557 H      0
    1.8098   -0.2125   -1.8624 H      0
    0.1089    4.3951   -4.0532 H      0
    1.7683    4.2644   -3.4732 H      0
    0.7273    5.5531   -2.8788 H      0
    1.1916    2.1630   -4.3505 H      0
    0.8805    0.7882   -3.2955 H      0
    2.5353    1.3265   -3.5768 H      0
    3.7699    1.1807   -1.6100 H      0
    4.5264    2.6013   -0.8944 H      0
    3.6365    1.4747    0.1230 H      0
    2.1327    5.1380    1.5209 H      0
    3.4671    4.0201    1.2475 H      0
    1.9789    3.4488    1.9984 H      0
   -1.3880    5.3059   -0.5603 H      0
   -0.0241    6.2501    0.0319 H      0
   -0.6570    4.9220    0.9971 H      0
  1  2  1
  2  3  1
  3  4  2
  2  4  1
  4  5  1
  5  6  4
  6  7  4
  7  8  4
  8  9  4
  9 10  4
 10 11  4
 11 12  4
 12 13  4
  2 13  1
 13 14  4
  5 14  4
  9 14  4
  2 15  1
 15 16  1
 15 17  4
  2 17  1
 17 18  1
 17 19  4
  2 19  1
 19 20  1
 19 21  4
  2 21  1
 21 22  1
 21 23  4
  2 23  1
 15 23  4
 23 24  1
  3 25  1
  6 26  1
  7 27  1
  8 28  1
 10 29  1
 11 30  1
 12 31  1
 16 32  1
 16 33  1
 16 34  1
 18 35  1
 18 36  1
 18 37  1
 20 38  1
 20 39  1
 20 40  1
 22 41  1
 22 42  1
 22 43  1
 24 44  1
 24 45  1
 24 46  1
M  END
$$$$
