
     RDKit          3D

  0  0  0  0  0  0  0  0  0  0999 V3000
M  V30 BEGIN CTAB
M  V30 COUNTS 43 45 0 0 0
M  V30 BEGIN ATOM
M  V30 1 C -1.897278 -0.649303 1.902685 0
M  V30 2 C -1.915117 0.235413 0.674461 0
M  V30 3 N -0.720490 -0.004562 -0.107656 0
M  V30 4 Pt 0.773906 0.568814 0.902117 0 VAL=4
M  V30 5 N 1.792486 -0.919342 1.670551 0
M  V30 6 C 2.554448 -1.375470 0.536490 0
M  V30 7 C 3.512265 -2.463807 0.798460 0
M  V30 8 C 3.067142 -0.244417 -0.277357 0
M  V30 9 C 4.234214 -0.255125 -1.029503 0
M  V30 10 C 4.522490 0.884594 -1.742445 0
M  V30 11 C 3.716519 2.005064 -1.736862 0
M  V30 12 C 2.552800 2.046476 -1.000608 0
M  V30 13 C 2.294355 0.908131 -0.306628 0
M  V30 14 N 0.383767 1.930295 2.099691 0
M  V30 15 C 0.216083 3.079315 1.619460 0
M  V30 16 O -0.087391 4.171045 1.092062 0
M  V30 17 C -3.087765 0.034743 -0.163619 0
M  V30 18 C -4.103247 0.997797 -0.145416 0
M  V30 19 C -5.256077 0.863450 -0.916696 0
M  V30 20 C -5.342933 -0.260698 -1.693707 0
M  V30 21 C -4.354278 -1.236001 -1.736006 0
M  V30 22 C -3.202994 -1.089374 -0.957791 0
M  V30 23 H -1.688766 -1.712636 1.647974 0
M  V30 24 H -2.827134 -0.550001 2.457231 0
M  V30 25 H -1.072169 -0.258219 2.543270 0
M  V30 26 H -1.864534 1.284082 1.025169 0
M  V30 27 H -0.596946 -0.993136 -0.366652 0
M  V30 28 H -0.802592 0.608043 -0.951794 0
M  V30 29 H 1.044709 -1.593861 1.947473 0
M  V30 30 H 2.311598 -0.532418 2.455095 0
M  V30 31 H 1.752413 -1.837554 -0.142628 0
M  V30 32 H 4.337827 -2.236470 1.481345 0
M  V30 33 H 3.911403 -2.799918 -0.196131 0
M  V30 34 H 2.959384 -3.333492 1.182641 0
M  V30 35 H 4.850775 -1.136096 -1.022613 0
M  V30 36 H 5.437211 0.928164 -2.355463 0
M  V30 37 H 3.917160 2.924755 -2.291719 0
M  V30 38 H 1.813539 2.816424 -0.876007 0
M  V30 39 H -3.968187 1.865910 0.494301 0
M  V30 40 H -6.005595 1.635582 -0.862703 0
M  V30 41 H -6.254563 -0.353472 -2.292555 0
M  V30 42 H -4.482650 -2.116389 -2.379009 0
M  V30 43 H -2.425787 -1.836336 -0.978908 0
M  V30 END ATOM
M  V30 BEGIN BOND
M  V30 1 1 1 2
M  V30 2 1 2 3
M  V30 3 9 3 4
M  V30 4 9 5 4
M  V30 5 1 5 6
M  V30 6 1 6 7
M  V30 7 1 6 8
M  V30 8 2 8 9
M  V30 9 1 9 10
M  V30 10 2 10 11
M  V30 11 1 11 12
M  V30 12 2 12 13
M  V30 13 1 4 14
M  V30 14 2 14 15
M  V30 15 2 15 16
M  V30 16 1 2 17
M  V30 17 2 17 18
M  V30 18 1 18 19
M  V30 19 2 19 20
M  V30 20 1 20 21
M  V30 21 2 21 22
M  V30 22 1 13 4
M  V30 23 1 22 17
M  V30 24 1 13 8
M  V30 25 1 1 23
M  V30 26 1 1 24
M  V30 27 1 1 25
M  V30 28 1 2 26
M  V30 29 1 3 27
M  V30 30 1 3 28
M  V30 31 1 5 29
M  V30 32 1 5 30
M  V30 33 1 6 31
M  V30 34 1 7 32
M  V30 35 1 7 33
M  V30 36 1 7 34
M  V30 37 1 9 35
M  V30 38 1 10 36
M  V30 39 1 11 37
M  V30 40 1 12 38
M  V30 41 1 18 39
M  V30 42 1 19 40
M  V30 43 1 20 41
M  V30 44 1 21 42
M  V30 45 1 22 43
M  V30 END BOND
M  V30 END CTAB
M  END
