
 OpenBabel09252515213D

 48 56  0  0  1  0  0  0  0  0999 V2000
    0.9409    0.0690    0.0418 H   0  0  0  0  0  0  0  0  0  0  0  0
    2.0109    0.0690    0.0418 C   0  0  0  0  0  3  0  0  0  0  0  0
    2.5176   -1.3370    0.3186 C   0  0  0  0  0  3  0  0  0  0  0  0
    3.5876   -1.3370    0.3186 H   0  0  0  0  0  0  0  0  0  0  0  0
    2.0109   -1.8003    1.6748 C   0  0  0  0  0  3  0  0  0  0  0  0
    0.4979   -1.7446    1.6355 C   0  0  0  0  0  3  0  0  0  0  0  0
    0.0149   -3.0006    0.8963 C   0  0  0  0  0  3  0  0  0  0  0  0
    0.6293   -3.0434   -0.4934 C   0  0  0  0  0  3  0  0  0  0  0  0
    1.6958   -3.0676   -0.4112 H   0  0  0  0  0  0  0  0  0  0  0  0
    0.1488   -4.2880   -1.2217 C   0  0  0  0  0  3  0  0  0  0  0  0
   -0.9178   -4.2638   -1.3039 H   0  0  0  0  0  0  0  0  0  0  0  0
    0.7631   -4.3307   -2.6114 C   0  0  0  0  0  3  0  0  0  0  0  0
    0.1642   -4.4121   -3.4943 H   0  0  0  0  0  0  0  0  0  0  0  0
    0.0420   -0.4977    0.8954 C   0  0  0  0  0  3  0  0  0  0  0  0
    2.5176    1.0118    1.1210 C   0  0  0  0  0  3  0  0  0  0  0  0
    3.2921    0.7246    1.8012 H   0  0  0  0  0  0  0  0  0  0  0  0
    0.4481   -4.2373    1.6886 Ir  0  0  0  0  0  0  0  0  0  0  0  0
   -0.7394   -2.2740    2.4886 Cl  0  0  0  0  0  0  0  0  0  0  0  0
    1.9243   -4.2130    1.9574 C   0  0  0  0  0  0  0  0  0  0  0  0
    2.6074   -4.8246    2.5091 H   0  0  0  0  0  0  0  0  0  0  0  0
    1.5115   -5.0088    2.5416 H   0  0  0  0  0  0  0  0  0  0  0  0
    2.6420   -3.1028    1.9593 C   0  0  1  0  0  0  0  0  0  0  0  0
    3.4524   -3.7502    2.2222 H   0  0  0  0  0  0  0  0  0  0  0  0
   -2.0733   -5.7567    2.1227 C   0  0  2  0  0  0  0  0  0  0  0  0
   -3.1247   -6.7947    2.4803 C   0  0  0  0  0  0  0  0  0  0  0  0
   -3.9103   -6.3289    3.0377 H   0  0  0  0  0  0  0  0  0  0  0  0
   -3.5263   -7.2187    1.5838 H   0  0  0  0  0  0  0  0  0  0  0  0
   -2.6777   -7.5669    3.0709 H   0  0  0  0  0  0  0  0  0  0  0  0
   -1.7946   -4.5108    2.9688 C   0  0  2  0  0  0  0  0  0  0  0  0
   -3.0419   -4.0979    3.7331 C   0  0  0  0  0  0  0  0  0  0  0  0
   -3.0554   -3.0339    3.8454 H   0  0  0  0  0  0  0  0  0  0  0  0
   -3.9111   -4.4106    3.1931 H   0  0  0  0  0  0  0  0  0  0  0  0
   -3.0372   -4.5585    4.6989 H   0  0  0  0  0  0  0  0  0  0  0  0
   -0.3013   -4.2754    3.0031 C   0  0  2  0  0  0  0  0  0  0  0  0
   -0.0322   -3.7711    4.4115 C   0  0  0  0  0  0  0  0  0  0  0  0
    0.5129   -4.5121    4.9580 H   0  0  0  0  0  0  0  0  0  0  0  0
    0.5418   -2.8693    4.3635 H   0  0  0  0  0  0  0  0  0  0  0  0
   -0.9617   -3.5764    4.9043 H   0  0  0  0  0  0  0  0  0  0  0  0
    0.0914   -5.4975    0.8918 C   0  0  2  0  0  0  0  0  0  0  0  0
    0.7854   -6.4451   -0.0730 C   0  0  0  0  0  0  0  0  0  0  0  0
    0.3895   -7.4316    0.0491 H   0  0  0  0  0  0  0  0  0  0  0  0
    0.6192   -6.1159   -1.0774 H   0  0  0  0  0  0  0  0  0  0  0  0
    1.8359   -6.4547    0.1300 H   0  0  0  0  0  0  0  0  0  0  0  0
   -1.4279   -5.5905    0.7456 C   0  0  2  0  0  0  0  0  0  0  0  0
   -2.4487   -5.9717   -0.3142 C   0  0  0  0  0  0  0  0  0  0  0  0
   -3.3702   -6.2407    0.1585 H   0  0  0  0  0  0  0  0  0  0  0  0
   -2.6123   -5.1400   -0.9672 H   0  0  0  0  0  0  0  0  0  0  0  0
   -2.0821   -6.8026   -0.8799 H   0  0  0  0  0  0  0  0  0  0  0  0
  1  2  1  0  0  0  0
  2  3  1  0  0  0  0
  2 15  1  0  0  0  0
  3  5  1  0  0  0  0
  3  4  1  0  0  0  0
  5  6  1  0  0  0  0
  5 22  1  0  0  0  0
  6  7  1  0  0  0  0
  6 14  1  0  0  0  0
  7  8  1  0  0  0  0
  7 17  1  0  0  0  0
  8 10  1  0  0  0  0
  8  9  1  0  0  0  0
 10 12  1  0  0  0  0
 10 11  1  0  0  0  0
 12 14  1  0  0  0  0
 12 13  1  0  0  0  0
 14 15  1  0  0  0  0
 15 16  1  0  0  0  0
 17 19  1  0  0  0  0
 17 22  1  0  0  0  0
 17 24  1  0  0  0  0
 17 29  1  0  0  0  0
 17 34  1  0  0  0  0
 17 39  1  0  0  0  0
 17 44  1  0  0  0  0
 17 18  1  0  0  0  0
 19 22  2  0  0  0  0
 19 20  1  0  0  0  0
 19 21  1  0  0  0  0
 22 23  1  1  0  0  0
 24 29  1  0  0  0  0
 24 44  1  0  0  0  0
 24 25  1  6  0  0  0
 25 26  1  0  0  0  0
 25 27  1  0  0  0  0
 25 28  1  0  0  0  0
 29 34  1  0  0  0  0
 29 30  1  1  0  0  0
 30 31  1  0  0  0  0
 30 32  1  0  0  0  0
 30 33  1  0  0  0  0
 34 39  1  0  0  0  0
 34 35  1  1  0  0  0
 35 36  1  0  0  0  0
 35 37  1  0  0  0  0
 35 38  1  0  0  0  0
 39 44  1  0  0  0  0
 39 40  1  6  0  0  0
 40 41  1  0  0  0  0
 40 42  1  0  0  0  0
 40 43  1  0  0  0  0
 44 45  1  6  0  0  0
 45 46  1  0  0  0  0
 45 47  1  0  0  0  0
 45 48  1  0  0  0  0
M  END
$$$$
