
  --CCDC--081225    3D                              

 62 63  0  0  0  0  0  0  0  0999 V2000
   -0.0404    0.0328   -0.0056 C      0
    1.8942    0.0438   -0.6571 Pt     0
    1.5307    1.9240   -1.3618 C      0
    2.0330   -1.8352    0.1263 C      0
    3.8295    0.0401   -1.3044 N      0
    4.5113   -1.1022   -1.5918 N      0
    5.6767   -0.6748   -2.0351 C      0
    6.7446   -1.6538   -2.4058 C      0
    7.7486   -1.8923   -1.2878 C      0
    8.2105   -0.6783   -0.5135 C      0
    8.8359    0.4526   -1.3527 C      0
    7.9977    1.7030   -1.4286 C      0
    6.7872    1.7135   -2.3493 C      0
    5.6918    0.7335   -2.0127 C      0
    4.5370    1.1748   -1.5560 N      0
    2.7223    0.9651    1.4131 P      0
    1.3840    1.1632    2.6138 C      0
    3.4678    2.5887    1.1285 C      0
    3.9731   -0.1358    2.1171 C      0
    1.3436   -0.8786   -2.8168 P      0
   -0.4424   -0.8704   -3.1044 C      0
    2.1332    0.1067   -4.1120 C      0
    1.9476   -2.5794   -2.9363 C      0
   -0.4762    1.0203   -0.1423 H      0
   -0.6145   -0.6989   -0.5680 H      0
   -0.0704   -0.2355    1.0476 H      0
    0.6690    1.9005   -2.0256 H      0
    2.3977    2.2866   -1.9091 H      0
    1.3253    2.5901   -0.5263 H      0
    1.3114   -2.4858   -0.3632 H      0
    3.0362   -2.2260   -0.0277 H      0
    1.8201   -1.7981    1.1926 H      0
    7.2779   -1.2725   -3.2753 H      0
    6.2730   -2.6029   -2.6566 H      0
    8.6296   -2.3555   -1.7299 H      0
    7.2935   -2.5817   -0.5782 H      0
    8.9537   -1.0069    0.2115 H      0
    7.3485   -0.2682    0.0107 H      0
    8.9885    0.0820   -2.3652 H      0
    9.7975    0.7125   -0.9125 H      0
    8.6537    2.5100   -1.7518 H      0
    7.6372    1.9093   -0.4220 H      0
    7.1337    1.4924   -3.3578 H      0
    6.3582    2.7141   -2.3241 H      0
    0.9164    0.2053    2.8318 H      0
    0.6184    1.8346    2.2306 H      0
    1.7610    1.5765    3.5469 H      0
    4.3327    2.5115    0.4739 H      0
    3.7952    3.0305    2.0672 H      0
    2.7522    3.2661    0.6674 H      0
    4.8077   -0.2604    1.4303 H      0
    3.5518   -1.1181    2.3203 H      0
    4.3598    0.2670    3.0509 H      0
   -0.9557   -1.4794   -2.3632 H      0
   -0.8381    0.1413   -3.0451 H      0
   -0.6759   -1.2683   -4.0897 H      0
    1.9060   -0.2972   -5.0964 H      0
    3.2142    0.1106   -3.9886 H      0
    1.7846    1.1368   -4.0795 H      0
    1.7410   -2.9932   -3.9211 H      0
    3.0221   -2.6199   -2.7707 H      0
    1.4661   -3.2138   -2.1952 H      0
  1  2  1
  2  3  1
  2  4  1
  2  5  1
  5  6  1
  6  7  2
  7  8  1
  8  9  1
  9 10  1
 10 11  1
 11 12  1
 12 13  1
 13 14  1
  7 14  1
 14 15  2
  5 15  1
  2 16  1
 16 17  1
 16 18  1
 16 19  1
  2 20  1
 20 21  1
 20 22  1
 20 23  1
  1 24  1
  1 25  1
  1 26  1
  3 27  1
  3 28  1
  3 29  1
  4 30  1
  4 31  1
  4 32  1
  8 33  1
  8 34  1
  9 35  1
  9 36  1
 10 37  1
 10 38  1
 11 39  1
 11 40  1
 12 41  1
 12 42  1
 13 43  1
 13 44  1
 17 45  1
 17 46  1
 17 47  1
 18 48  1
 18 49  1
 18 50  1
 19 51  1
 19 52  1
 19 53  1
 21 54  1
 21 55  1
 21 56  1
 22 57  1
 22 58  1
 22 59  1
 23 60  1
 23 61  1
 23 62  1
M  END
$$$$
