
  --CCDC--081225    3D                              

 53 64  0  0  0  0  0  0  0  0999 V2000
    2.0831    4.2965    0.5219 C      0
    3.0629    3.4211   -0.1013 C      0
    3.8130    2.6967   -0.5588 N      0
    5.2644    1.3132   -1.2999 Ru     3
    2.9784    1.0774   -2.6304 Br     0
    2.3489   -1.4793   -2.2443 Ru     0
    1.6765   -0.7428   -4.1383 C      0
    1.3235   -0.3435   -5.1459 O      0
    0.6933   -0.1440   -2.0090 N      0
   -0.2064    0.5497   -1.9014 C      0
   -1.3546    1.4431   -1.8332 C      0
    1.7007   -3.3800   -2.0760 C      0
    1.9463   -2.6099   -0.6216 C      0
    3.4748   -1.9436   -0.6313 C      0
    4.0073   -0.8781    0.3187 C      0
    4.2800   -1.5335    1.6712 C      0
    2.9608    0.1674    0.7000 C      0
    5.3521   -0.3250   -0.1367 C      0
    6.1084    1.0193    0.5056 C      0
    7.1337    1.6567   -0.6455 C      0
    7.0460    0.6767   -1.9938 C      0
    5.9571   -0.5424   -1.6748 C      0
    5.3574   -1.5228   -2.6764 C      0
    5.1514   -1.0050   -4.1031 C      0
    6.4406   -2.5767   -2.9007 C      0
    4.1828   -2.2939   -2.0984 C      0
    3.0960   -3.2122   -2.9643 C      0
    4.9708    2.9098   -2.6916 C      0
    4.8144    3.7605   -3.4331 O      0
    2.4385    5.3234    0.5309 H      0
    1.9029    3.9908    1.5500 H      0
    1.1385    4.2649   -0.0169 H      0
   -1.6959    1.7070   -2.8322 H      0
   -1.0940    2.3609   -1.3130 H      0
   -2.1820    0.9702   -1.3081 H      0
    0.7219   -3.3274   -2.5773 H      0
    1.1109   -2.0513   -0.1733 H      0
    4.6747   -0.8016    2.3739 H      0
    5.0058   -2.3397    1.5810 H      0
    3.3656   -1.9455    2.0916 H      0
    2.3795    0.4858   -0.1521 H      0
    3.4380    1.0431    1.1366 H      0
    2.2559   -0.2285    1.4277 H      0
    5.5273    1.7070    1.1425 H      0
    7.2031    2.7487   -0.7614 H      0
    7.0604    1.1277   -2.9998 H      0
    5.8285   -0.1781   -4.3048 H      0
    4.1459   -0.6617   -4.3035 H      0
    5.3691   -1.7874   -4.8282 H      0
    6.0701   -3.3912   -3.5208 H      0
    6.7710   -2.9990   -1.9534 H      0
    7.3060   -2.1421   -3.3962 H      0
    3.0147   -3.0807   -4.0535 H      0
  1  2  1
  2  3  3
  3  4  1
  4  5  1
  5  6  1
  6  7  1
  7  8  3
  6  9  1
  9 10  3
 10 11  1
  6 12  1
 12 13  1
  6 13  1
 13 14  1
  6 14  1
 14 15  1
 15 16  1
 15 17  1
 15 18  1
  4 18  1
 18 19  1
  4 19  1
 19 20  1
  4 20  1
 20 21  1
  4 21  1
 21 22  1
  4 22  1
 18 22  1
 22 23  1
 23 24  1
 23 25  1
 23 26  1
  6 26  1
 14 26  1
 26 27  1
  6 27  1
 12 27  1
  4 28  1
 28 29  3
  1 30  1
  1 31  1
  1 32  1
 11 33  1
 11 34  1
 11 35  1
 12 36  1
 13 37  1
 16 38  1
 16 39  1
 16 40  1
 17 41  1
 17 42  1
 17 43  1
 19 44  1
 20 45  1
 21 46  1
 24 47  1
 24 48  1
 24 49  1
 25 50  1
 25 51  1
 25 52  1
 27 53  1
M  CHG  1   4   1
M  END
$$$$
