
     RDKit          3D

  0  0  0  0  0  0  0  0  0  0999 V3000
M  V30 BEGIN CTAB
M  V30 COUNTS 79 83 0 0 0
M  V30 BEGIN ATOM
M  V30 1 Cl 0.812074 -0.810874 -2.306786 0
M  V30 2 Ru 1.330594 -0.293061 -0.268181 0 VAL=6
M  V30 3 C 2.336267 -2.004929 0.039604 0
M  V30 4 C 3.782275 -2.053186 -0.310308 0
M  V30 5 C 4.348762 -3.201519 -0.733064 0
M  V30 6 C 5.674518 -3.203088 -1.103410 0
M  V30 7 C 6.351324 -2.008355 -1.016747 0
M  V30 8 C 5.720248 -0.883524 -0.580586 0
M  V30 9 C 4.370013 -0.813354 -0.186843 0
M  V30 10 C 3.925610 0.499858 0.287065 0
M  V30 11 C 4.953679 1.573460 -0.024278 0
M  V30 12 N 2.592350 0.906443 0.108059 0
M  V30 13 C 2.555083 2.158777 -0.630416 0
M  V30 14 C 2.179227 1.389579 1.459928 0
M  V30 15 Cl 1.519067 -0.342775 -2.772031 0
M  V30 16 C -0.551766 -0.147478 -0.189973 0 RAD=2 VAL=3
M  V30 17 N -1.009403 0.901982 0.714125 0
M  V30 18 C -0.946800 0.297690 2.008939 0
M  V30 19 C -0.565794 -1.135227 1.647603 0
M  V30 20 N -1.224732 -1.316373 0.376622 0
M  V30 21 C -2.189954 -2.335140 0.057806 0
M  V30 22 C -1.911024 -3.605505 -0.392919 0
M  V30 23 C -0.511967 -4.025774 -0.518192 0
M  V30 24 C -2.879483 -4.524298 -0.714414 0
M  V30 25 C -4.192341 -4.200313 -0.593476 0
M  V30 26 C -5.255558 -5.175257 -0.936356 0
M  V30 27 C -4.511844 -2.942844 -0.145941 0
M  V30 28 C -3.541337 -1.988714 0.187536 0
M  V30 29 C -4.056389 -0.689817 0.647865 0
M  V30 30 C -1.394871 2.255588 0.390463 0
M  V30 31 C -1.623358 3.210896 1.338753 0
M  V30 32 C -1.419957 3.024741 2.769041 0
M  V30 33 C -2.054272 4.494491 0.974512 0
M  V30 34 C -2.273464 4.885570 -0.316417 0
M  V30 35 C -2.726010 6.248895 -0.654527 0
M  V30 36 C -2.042978 3.926930 -1.264681 0
M  V30 37 C -1.617706 2.655543 -0.906610 0
M  V30 38 C -1.460645 1.775382 -2.083405 0
M  V30 39 H 2.004185 -2.975687 0.459014 0
M  V30 40 H 3.718739 -4.079025 -0.759852 0
M  V30 41 H 6.068406 -4.150837 -1.432078 0
M  V30 42 H 7.389611 -2.117870 -1.332430 0
M  V30 43 H 6.462678 -0.065733 -0.600381 0
M  V30 44 H 4.058905 0.388387 1.430147 0
M  V30 45 H 5.830628 1.379910 0.627359 0
M  V30 46 H 5.327387 1.543721 -1.064103 0
M  V30 47 H 4.596082 2.575187 0.274786 0
M  V30 48 H 3.411317 2.146797 -1.339504 0
M  V30 49 H 1.601453 2.198657 -1.214454 0
M  V30 50 H 2.665268 2.995667 0.050158 0
M  V30 51 H 2.043168 0.559383 2.158107 0
M  V30 52 H 3.009210 2.047864 1.856547 0
M  V30 53 H 1.293287 2.008895 1.415655 0
M  V30 54 H -0.245216 0.635535 2.726743 0
M  V30 55 H -1.970263 0.267275 2.503705 0
M  V30 56 H -0.919520 -1.848028 2.428969 0
M  V30 57 H 0.499684 -1.302382 1.528627 0
M  V30 58 H 0.123799 -3.407754 -1.148359 0
M  V30 59 H -0.437213 -5.070886 -0.944423 0
M  V30 60 H -0.064847 -4.138814 0.505871 0
M  V30 61 H -2.605360 -5.509915 -1.064982 0
M  V30 62 H -6.096002 -5.021110 -0.237550 0
M  V30 63 H -4.874056 -6.212842 -0.857327 0
M  V30 64 H -5.585900 -5.017045 -1.994063 0
M  V30 65 H -5.580336 -2.713676 -0.059245 0
M  V30 66 H -5.148856 -0.599689 0.368085 0
M  V30 67 H -4.056080 -0.582552 1.744763 0
M  V30 68 H -3.601859 0.182982 0.106247 0
M  V30 69 H -2.072251 2.336072 3.290074 0
M  V30 70 H -1.583339 4.005322 3.332571 0
M  V30 71 H -0.316986 2.879397 2.929305 0
M  V30 72 H -2.246247 5.277115 1.723556 0
M  V30 73 H -2.320804 6.963983 0.100535 0
M  V30 74 H -2.400959 6.596168 -1.656579 0
M  V30 75 H -3.852293 6.308159 -0.657003 0
M  V30 76 H -2.218023 4.238501 -2.306603 0
M  V30 77 H -2.099352 2.128626 -2.963363 0
M  V30 78 H -0.431082 1.852953 -2.425603 0
M  V30 79 H -1.866399 0.792868 -1.861282 0
M  V30 END ATOM
M  V30 BEGIN BOND
M  V30 1 1 1 2
M  V30 2 2 2 3
M  V30 3 1 3 4
M  V30 4 2 4 5
M  V30 5 1 5 6
M  V30 6 2 6 7
M  V30 7 1 7 8
M  V30 8 2 8 9
M  V30 9 1 9 10
M  V30 10 1 10 11
M  V30 11 1 10 12
M  V30 12 1 12 13
M  V30 13 1 12 14
M  V30 14 1 2 15
M  V30 15 1 2 16
M  V30 16 1 16 17
M  V30 17 1 17 18
M  V30 18 1 18 19
M  V30 19 1 19 20
M  V30 20 1 20 21
M  V30 21 2 21 22
M  V30 22 1 22 23
M  V30 23 1 22 24
M  V30 24 2 24 25
M  V30 25 1 25 26
M  V30 26 1 25 27
M  V30 27 2 27 28
M  V30 28 1 28 29
M  V30 29 1 17 30
M  V30 30 2 30 31
M  V30 31 1 31 32
M  V30 32 1 31 33
M  V30 33 2 33 34
M  V30 34 1 34 35
M  V30 35 1 34 36
M  V30 36 2 36 37
M  V30 37 1 37 38
M  V30 38 9 12 2
M  V30 39 1 20 16
M  V30 40 1 28 21
M  V30 41 1 37 30
M  V30 42 1 9 4
M  V30 43 1 3 39
M  V30 44 1 5 40
M  V30 45 1 6 41
M  V30 46 1 7 42
M  V30 47 1 8 43
M  V30 48 1 10 44
M  V30 49 1 11 45
M  V30 50 1 11 46
M  V30 51 1 11 47
M  V30 52 1 13 48
M  V30 53 1 13 49
M  V30 54 1 13 50
M  V30 55 1 14 51
M  V30 56 1 14 52
M  V30 57 1 14 53
M  V30 58 1 18 54
M  V30 59 1 18 55
M  V30 60 1 19 56
M  V30 61 1 19 57
M  V30 62 1 23 58
M  V30 63 1 23 59
M  V30 64 1 23 60
M  V30 65 1 24 61
M  V30 66 1 26 62
M  V30 67 1 26 63
M  V30 68 1 26 64
M  V30 69 1 27 65
M  V30 70 1 29 66
M  V30 71 1 29 67
M  V30 72 1 29 68
M  V30 73 1 32 69
M  V30 74 1 32 70
M  V30 75 1 32 71
M  V30 76 1 33 72
M  V30 77 1 35 73
M  V30 78 1 35 74
M  V30 79 1 35 75
M  V30 80 1 36 76
M  V30 81 1 38 77
M  V30 82 1 38 78
M  V30 83 1 38 79
M  V30 END BOND
M  V30 END CTAB
M  END
