
 OpenBabel09252518443D

 29 30  0  0  0  0  0  0  0  0999 V2000
    1.0815    0.0046    0.0578 H   0  0  0  0  0  0  0  0  0  0  0  0
    2.1515    0.0046    0.0578 C   0  0  0  0  0  0  0  0  0  0  0  0
    2.4259   -0.0457   -0.9752 H   0  0  0  0  0  0  0  0  0  0  0  0
    2.6876    1.1855    0.7594 N   0  0  0  0  0  0  0  0  0  0  0  0
    1.9974    2.4690    0.9524 C   0  0  0  0  0  0  0  0  0  0  0  0
    2.8579    3.8776    1.8880 Au  0  0  0  0  0  0  0  0  0  0  0  0
    3.9372    5.6445    3.0617 Cl  0  0  0  0  0  0  0  0  0  0  0  0
    0.6406    2.6611    0.4204 N   0  0  0  0  0  0  0  0  0  0  0  0
   -0.5543    1.8738    0.7766 C   0  0  0  0  0  0  0  0  0  0  0  0
   -1.1358    2.3039    1.5651 H   0  0  0  0  0  0  0  0  0  0  0  0
   -0.2871    0.9006    1.1321 H   0  0  0  0  0  0  0  0  0  0  0  0
   -1.2785    1.7956   -0.5388 C   0  0  0  0  0  0  0  0  0  0  0  0
   -0.8746    1.0573   -1.1995 H   0  0  0  0  0  0  0  0  0  0  0  0
   -2.3033    1.5219   -0.3979 H   0  0  0  0  0  0  0  0  0  0  0  0
   -1.1573    3.2475   -1.0920 C   0  0  0  0  0  0  0  0  0  0  0  0
   -1.2522    3.2992   -2.1565 H   0  0  0  0  0  0  0  0  0  0  0  0
   -1.9339    3.8722   -0.7026 H   0  0  0  0  0  0  0  0  0  0  0  0
    0.2157    3.7022   -0.5902 C   0  0  0  0  0  0  0  0  0  0  0  0
    0.9214    3.7912   -1.3896 H   0  0  0  0  0  0  0  0  0  0  0  0
    0.1452    4.6649   -0.1285 H   0  0  0  0  0  0  0  0  0  0  0  0
    4.0764    0.8361    1.2441 C   0  0  0  0  0  0  0  0  0  0  0  0
    4.2467    1.1797    2.2430 H   0  0  0  0  0  0  0  0  0  0  0  0
    4.8162    1.2992    0.6251 H   0  0  0  0  0  0  0  0  0  0  0  0
    4.1724   -0.6885    1.1432 C   0  0  0  0  0  0  0  0  0  0  0  0
    4.5968   -1.1399    2.0156 H   0  0  0  0  0  0  0  0  0  0  0  0
    4.8050   -0.9798    0.3309 H   0  0  0  0  0  0  0  0  0  0  0  0
    2.6982   -1.1244    0.8869 C   0  0  0  0  0  0  0  0  0  0  0  0
    2.1454   -1.2926    1.7874 H   0  0  0  0  0  0  0  0  0  0  0  0
    2.6583   -2.0496    0.3509 H   0  0  0  0  0  0  0  0  0  0  0  0
  1  2  1  0  0  0  0
  2  3  1  0  0  0  0
  2  4  1  0  0  0  0
  2 27  1  0  0  0  0
  4  5  1  0  0  0  0
  4 21  1  0  0  0  0
  5  6  2  0  0  0  0
  5  8  1  0  0  0  0
  6  7  1  0  0  0  0
  8  9  1  0  0  0  0
  8 18  1  0  0  0  0
  9 10  1  0  0  0  0
  9 11  1  0  0  0  0
  9 12  1  0  0  0  0
 12 13  1  0  0  0  0
 12 14  1  0  0  0  0
 12 15  1  0  0  0  0
 15 16  1  0  0  0  0
 15 17  1  0  0  0  0
 15 18  1  0  0  0  0
 18 19  1  0  0  0  0
 18 20  1  0  0  0  0
 21 22  1  0  0  0  0
 21 23  1  0  0  0  0
 21 24  1  0  0  0  0
 24 25  1  0  0  0  0
 24 26  1  0  0  0  0
 24 27  1  0  0  0  0
 27 28  1  0  0  0  0
 27 29  1  0  0  0  0
M  END
$$$$
