
 OpenBabel09252515433D

 57 60  0  0  0  0  0  0  0  0999 V2000
    1.3219   -0.0678    1.4157 H   0  0  0  0  0  0  0  0  0  0  0  0
    1.8449   -0.0806    0.4665 C   0  0  0  0  0  3  0  0  0  0  0  0
    1.8697   -1.3027   -0.3220 C   0  0  0  0  0  3  0  0  0  0  0  0
    1.4309   -2.2051    0.0887 H   0  0  0  0  0  0  0  0  0  0  0  0
    2.7632   -1.4095   -1.4678 C   0  0  0  0  0  3  0  0  0  0  0  0
    2.9688   -2.3938   -1.8735 H   0  0  0  0  0  0  0  0  0  0  0  0
    3.6403   -0.2951   -1.8332 C   0  0  0  0  0  3  0  0  0  0  0  0
    4.6901   -0.5986   -2.7246 N   0  0  0  0  0  0  0  0  0  0  0  0
    4.7599   -0.2918   -4.1424 C   0  0  0  0  0  0  0  0  0  0  0  0
    4.1462    0.8221   -4.6019 C   0  0  0  0  0  0  0  0  0  0  0  0
    4.8968    1.7176   -5.4384 C   0  0  0  0  0  0  0  0  0  0  0  0
    5.5579    2.4832   -6.2611 C   0  0  0  0  0  0  0  0  0  0  0  0
    6.3287    3.3758   -7.2201 C   0  0  0  0  0  3  0  0  0  0  0  0
    5.6249    3.4901   -8.5178 C   0  0  0  0  0  3  0  0  0  0  0  0
    5.3967    2.5860   -9.0699 H   0  0  0  0  0  0  0  0  0  0  0  0
    4.8714    4.7104   -8.8067 C   0  0  0  0  0  3  0  0  0  0  0  0
    4.1056    4.6999   -9.5729 H   0  0  0  0  0  0  0  0  0  0  0  0
    4.9785    5.8563   -7.9111 C   0  0  0  0  0  3  0  0  0  0  0  0
    4.3172    6.7056   -8.0289 H   0  0  0  0  0  0  0  0  0  0  0  0
    5.9547    5.8394   -6.8297 C   0  0  0  0  0  3  0  0  0  0  0  0
    6.1575    6.7347   -6.2569 H   0  0  0  0  0  0  0  0  0  0  0  0
    6.7903    4.6555   -6.6450 C   0  0  0  0  0  3  0  0  0  0  0  0
    8.1284    4.9542   -6.5071 O   0  0  0  0  0  0  0  0  0  0  0  0
    9.0527    4.0123   -7.0387 C   0  0  0  0  0  0  0  0  0  0  0  0
    9.1140    3.1319   -6.3932 H   0  0  0  0  0  0  0  0  0  0  0  0
    8.8057    3.7286   -8.0681 H   0  0  0  0  0  0  0  0  0  0  0  0
   10.0368    4.4907   -7.0655 H   0  0  0  0  0  0  0  0  0  0  0  0
    2.2723    1.0278   -4.8519 Si  0  0  0  0  0  0  0  0  0  0  0  0
    1.5139   -0.6595   -5.2409 C   0  0  0  0  0  0  0  0  0  0  0  0
    1.6784   -1.3635   -4.4214 H   0  0  0  0  0  0  0  0  0  0  0  0
    0.4358   -0.5611   -5.4004 H   0  0  0  0  0  0  0  0  0  0  0  0
    1.9575   -1.0745   -6.1510 H   0  0  0  0  0  0  0  0  0  0  0  0
    1.3565    1.7675   -3.3989 C   0  0  0  0  0  0  0  0  0  0  0  0
    1.9147    2.5965   -2.9560 H   0  0  0  0  0  0  0  0  0  0  0  0
    0.3863    2.1558   -3.7264 H   0  0  0  0  0  0  0  0  0  0  0  0
    1.1540    1.0192   -2.6304 H   0  0  0  0  0  0  0  0  0  0  0  0
    1.9277    2.1587   -6.3419 C   0  0  0  0  0  0  0  0  0  0  0  0
    2.3060    3.1681   -6.1543 H   0  0  0  0  0  0  0  0  0  0  0  0
    2.4015    1.7646   -7.2457 H   0  0  0  0  0  0  0  0  0  0  0  0
    0.8499    2.2246   -6.5193 H   0  0  0  0  0  0  0  0  0  0  0  0
    6.0782   -0.7033   -4.6481 C   0  0  0  0  0  3  0  0  0  0  0  0
    6.4552   -1.1032   -6.0027 C   0  0  0  0  0  3  0  0  0  0  0  0
    5.6936   -1.3749   -6.7239 H   0  0  0  0  0  0  0  0  0  0  0  0
    7.8686   -1.2460   -6.3310 C   0  0  0  0  0  3  0  0  0  0  0  0
    8.1602   -1.6143   -7.3074 H   0  0  0  0  0  0  0  0  0  0  0  0
    8.8895   -0.9256   -5.3342 C   0  0  0  0  0  3  0  0  0  0  0  0
    9.8841   -0.6543   -5.6688 H   0  0  0  0  0  0  0  0  0  0  0  0
    8.5051   -0.7028   -3.9394 C   0  0  0  0  0  3  0  0  0  0  0  0
    9.1865   -0.2027   -3.2614 H   0  0  0  0  0  0  0  0  0  0  0  0
    7.0961   -0.7724   -3.6135 C   0  0  0  0  0  3  0  0  0  0  0  0
    6.3165   -0.5365   -2.0916 S   0  0  0  0  0  0  0  0  0  0  0  0
    6.6089    0.8074   -1.6225 O   0  0  0  0  0  0  0  0  0  0  0  0
    6.5243   -1.6915   -1.2465 O   0  0  0  0  0  0  0  0  0  0  0  0
    3.6203    0.9184   -1.0223 C   0  0  0  0  0  3  0  0  0  0  0  0
    4.2623    1.7557   -1.2664 H   0  0  0  0  0  0  0  0  0  0  0  0
    2.7102    1.0322    0.1093 C   0  0  0  0  0  3  0  0  0  0  0  0
    2.7509    1.9092    0.7437 H   0  0  0  0  0  0  0  0  0  0  0  0
  1  2  1  0  0  0  0
  2  3  1  0  0  0  0
  2 56  1  0  0  0  0
  3  4  1  0  0  0  0
  3  5  1  0  0  0  0
  5  6  1  0  0  0  0
  5  7  1  0  0  0  0
  7  8  1  0  0  0  0
  7 54  1  0  0  0  0
  8  9  1  0  0  0  0
  8 51  1  0  0  0  0
  9 10  2  0  0  0  0
  9 41  1  0  0  0  0
 10 11  1  0  0  0  0
 10 28  1  0  0  0  0
 11 12  3  0  0  0  0
 12 13  1  0  0  0  0
 13 14  1  0  0  0  0
 13 22  1  0  0  0  0
 14 15  1  0  0  0  0
 14 16  1  0  0  0  0
 16 17  1  0  0  0  0
 16 18  1  0  0  0  0
 18 19  1  0  0  0  0
 18 20  1  0  0  0  0
 20 21  1  0  0  0  0
 20 22  1  0  0  0  0
 22 23  1  0  0  0  0
 23 24  1  0  0  0  0
 24 25  1  0  0  0  0
 24 26  1  0  0  0  0
 24 27  1  0  0  0  0
 28 29  1  0  0  0  0
 28 33  1  0  0  0  0
 28 37  1  0  0  0  0
 29 30  1  0  0  0  0
 29 31  1  0  0  0  0
 29 32  1  0  0  0  0
 33 34  1  0  0  0  0
 33 35  1  0  0  0  0
 33 36  1  0  0  0  0
 37 38  1  0  0  0  0
 37 39  1  0  0  0  0
 37 40  1  0  0  0  0
 41 42  1  0  0  0  0
 41 50  1  0  0  0  0
 42 43  1  0  0  0  0
 42 44  1  0  0  0  0
 44 45  1  0  0  0  0
 44 46  1  0  0  0  0
 46 47  1  0  0  0  0
 46 48  1  0  0  0  0
 48 49  1  0  0  0  0
 48 50  1  0  0  0  0
 50 51  1  0  0  0  0
 51 52  2  0  0  0  0
 51 53  2  0  0  0  0
 54 55  1  0  0  0  0
 54 56  1  0  0  0  0
 56 57  1  0  0  0  0
M  END
$$$$
