
 OpenBabel09252517333D

 62 63  0  0  0  0  0  0  0  0999 V2000
    0.9530    0.0788    0.0399 C   0  0  0  0  0  0  0  0  0  0  0  0
    0.2464    0.1253   -1.9584 Pt  0  0  0  0  0  0  0  0  0  0  0  0
    1.9773   -0.9202   -2.5949 C   0  0  0  0  0  0  0  0  0  0  0  0
   -0.7530   -1.7184   -1.6479 C   0  0  0  0  0  0  0  0  0  0  0  0
   -0.4436    0.1707   -3.9094 N   0  0  0  0  0  0  0  0  0  0  0  0
   -0.5622   -1.1336   -5.0411 N   0  0  0  0  0  0  0  0  0  0  0  0
   -1.2546   -0.2523   -6.4157 C   0  0  0  0  0  0  0  0  0  0  0  0
   -1.6593   -0.8497   -7.7346 C   0  0  0  0  0  0  0  0  0  0  0  0
   -3.1903   -1.0113   -7.7096 C   0  0  0  0  0  0  0  0  0  0  0  0
   -3.8099    0.3473   -7.3640 C   0  0  0  0  0  0  0  0  0  0  0  0
   -3.3991    1.2790   -8.4848 C   0  0  0  0  0  0  0  0  0  0  0  0
   -2.0117    1.8702   -8.3158 C   0  0  0  0  0  0  0  0  0  0  0  0
   -1.7197    2.2420   -6.8682 C   0  0  0  0  0  0  0  0  0  0  0  0
   -1.3349    1.0313   -6.0199 C   0  0  0  0  0  0  0  0  0  0  0  0
   -0.9217    1.2502   -4.6285 N   0  0  0  0  0  0  0  0  0  0  0  0
   -1.7377    1.3237   -1.2288 P   0  0  0  0  0  4  0  0  0  0  0  0
   -1.3310    2.3419    0.2364 C   0  0  0  0  0  0  0  0  0  0  0  0
   -2.3272    2.4075   -2.5803 C   0  0  0  0  0  0  0  0  0  0  0  0
   -3.0491    0.1240   -0.7929 C   0  0  0  0  0  0  0  0  0  0  0  0
    1.3919    2.2386   -2.3143 P   0  0  0  0  0  4  0  0  0  0  0  0
    0.7470    3.4870   -1.1419 C   0  0  0  0  0  0  0  0  0  0  0  0
    3.1870    2.0133   -2.0391 C   0  0  0  0  0  0  0  0  0  0  0  0
    1.1043    2.8070   -4.0298 C   0  0  0  0  0  0  0  0  0  0  0  0
    0.5964   -0.8064    0.5238 H   0  0  0  0  0  0  0  0  0  0  0  0
    0.5964    0.9405    0.5645 H   0  0  0  0  0  0  0  0  0  0  0  0
    2.0230    0.0788    0.0399 H   0  0  0  0  0  0  0  0  0  0  0  0
    2.3220   -1.5539   -1.8046 H   0  0  0  0  0  0  0  0  0  0  0  0
    1.7396   -1.5155   -3.4515 H   0  0  0  0  0  0  0  0  0  0  0  0
    2.7441   -0.2187   -2.8497 H   0  0  0  0  0  0  0  0  0  0  0  0
   -1.8026   -1.5867   -1.8087 H   0  0  0  0  0  0  0  0  0  0  0  0
   -0.3759   -2.4483   -2.3333 H   0  0  0  0  0  0  0  0  0  0  0  0
   -0.5849   -2.0507   -0.6448 H   0  0  0  0  0  0  0  0  0  0  0  0
   -1.3566   -0.2209   -8.5456 H   0  0  0  0  0  0  0  0  0  0  0  0
   -1.1919   -1.8035   -7.8640 H   0  0  0  0  0  0  0  0  0  0  0  0
   -3.4729   -1.7424   -6.9812 H   0  0  0  0  0  0  0  0  0  0  0  0
   -3.5362   -1.3335   -8.6696 H   0  0  0  0  0  0  0  0  0  0  0  0
   -3.4774    0.7032   -6.4113 H   0  0  0  0  0  0  0  0  0  0  0  0
   -4.8759    0.2699   -7.3145 H   0  0  0  0  0  0  0  0  0  0  0  0
   -3.3811    0.6964   -9.3821 H   0  0  0  0  0  0  0  0  0  0  0  0
   -4.1043    2.0824   -8.5305 H   0  0  0  0  0  0  0  0  0  0  0  0
   -1.2995    1.1303   -8.6160 H   0  0  0  0  0  0  0  0  0  0  0  0
   -1.9356    2.7500   -8.9200 H   0  0  0  0  0  0  0  0  0  0  0  0
   -0.8896    2.9171   -6.8669 H   0  0  0  0  0  0  0  0  0  0  0  0
   -2.5938    2.6926   -6.4466 H   0  0  0  0  0  0  0  0  0  0  0  0
   -0.5643    3.0434   -0.0185 H   0  0  0  0  0  0  0  0  0  0  0  0
   -2.2047    2.8696    0.5576 H   0  0  0  0  0  0  0  0  0  0  0  0
   -0.9864    1.7082    1.0266 H   0  0  0  0  0  0  0  0  0  0  0  0
   -2.5650    1.8121   -3.4370 H   0  0  0  0  0  0  0  0  0  0  0  0
   -3.2008    2.9352   -2.2591 H   0  0  0  0  0  0  0  0  0  0  0  0
   -1.5604    3.1089   -2.8352 H   0  0  0  0  0  0  0  0  0  0  0  0
   -3.2869   -0.4714   -1.6496 H   0  0  0  0  0  0  0  0  0  0  0  0
   -2.7044   -0.5097   -0.0027 H   0  0  0  0  0  0  0  0  0  0  0  0
   -3.9228    0.6517   -0.4717 H   0  0  0  0  0  0  0  0  0  0  0  0
    0.9151    3.1547   -0.1388 H   0  0  0  0  0  0  0  0  0  0  0  0
    1.2514    4.4176   -1.2986 H   0  0  0  0  0  0  0  0  0  0  0  0
   -0.3026    3.6188   -1.3028 H   0  0  0  0  0  0  0  0  0  0  0  0
    3.5641    1.2834   -2.7246 H   0  0  0  0  0  0  0  0  0  0  0  0
    3.6914    2.9439   -2.1958 H   0  0  0  0  0  0  0  0  0  0  0  0
    3.3551    1.6810   -1.0360 H   0  0  0  0  0  0  0  0  0  0  0  0
    1.4814    2.0770   -4.7153 H   0  0  0  0  0  0  0  0  0  0  0  0
    0.0547    2.9387   -4.1907 H   0  0  0  0  0  0  0  0  0  0  0  0
    1.6087    3.7375   -4.1865 H   0  0  0  0  0  0  0  0  0  0  0  0
  1  2  1  0  0  0  0
  1 24  1  0  0  0  0
  1 25  1  0  0  0  0
  1 26  1  0  0  0  0
  2  3  1  0  0  0  0
  2  4  1  0  0  0  0
  2  5  1  0  0  0  0
  2 16  1  0  0  0  0
  2 20  1  0  0  0  0
  3 27  1  0  0  0  0
  3 28  1  0  0  0  0
  3 29  1  0  0  0  0
  4 30  1  0  0  0  0
  4 31  1  0  0  0  0
  4 32  1  0  0  0  0
  5  6  1  0  0  0  0
  5 15  1  0  0  0  0
  6  7  2  0  0  0  0
  7  8  1  0  0  0  0
  7 14  1  0  0  0  0
  8  9  1  0  0  0  0
  8 33  1  0  0  0  0
  8 34  1  0  0  0  0
  9 10  1  0  0  0  0
  9 35  1  0  0  0  0
  9 36  1  0  0  0  0
 10 11  1  0  0  0  0
 10 37  1  0  0  0  0
 10 38  1  0  0  0  0
 11 12  1  0  0  0  0
 11 39  1  0  0  0  0
 11 40  1  0  0  0  0
 12 13  1  0  0  0  0
 12 41  1  0  0  0  0
 12 42  1  0  0  0  0
 13 14  1  0  0  0  0
 13 43  1  0  0  0  0
 13 44  1  0  0  0  0
 14 15  2  0  0  0  0
 16 17  1  0  0  0  0
 16 18  1  0  0  0  0
 16 19  1  0  0  0  0
 17 45  1  0  0  0  0
 17 46  1  0  0  0  0
 17 47  1  0  0  0  0
 18 48  1  0  0  0  0
 18 49  1  0  0  0  0
 18 50  1  0  0  0  0
 19 51  1  0  0  0  0
 19 52  1  0  0  0  0
 19 53  1  0  0  0  0
 20 21  1  0  0  0  0
 20 22  1  0  0  0  0
 20 23  1  0  0  0  0
 21 54  1  0  0  0  0
 21 55  1  0  0  0  0
 21 56  1  0  0  0  0
 22 57  1  0  0  0  0
 22 58  1  0  0  0  0
 22 59  1  0  0  0  0
 23 60  1  0  0  0  0
 23 61  1  0  0  0  0
 23 62  1  0  0  0  0
M  END
$$$$
