
  --CCDC--092525    3D                              

 53 64  0  0  0  0  0  0  0  0999 V2000
    0.6815    3.3051   -0.5700 H      0
    1.2812    3.4963    0.3191 C      0
    1.8177    4.4329    0.1943 H      0
    0.6126    3.5845    1.1745 H      0
    2.2420    2.4213    0.4966 C      0
    2.9711    1.5523    0.5378 N      0
    4.4991    0.0673    0.3430 Ru     0
    5.0585    2.1248    0.0999 C      0
    5.3578    3.2257   -0.0301 O      0
    3.1942    1.1716   -1.6953 Br     0
    1.5795   -0.8584   -1.2208 Ru     3
    3.3701   -0.8662   -2.4020 C      0
    4.2773   -0.7843   -3.0920 O      0
    1.5319   -0.7499   -3.3580 N      0
    1.6716   -0.8006   -4.4897 C      0
    1.9351   -1.0477   -5.9005 C      0
    1.9560   -2.1233   -6.0884 H      0
    2.9055   -0.6391   -6.1810 H      0
    1.1641   -0.5990   -6.5261 H      0
   -0.3587   -1.0698   -0.8801 C      0
   -0.3297   -0.5404   -1.8864 H      0
    0.2840   -0.1932    0.2231 C      0
    0.5354    0.9132    0.2939 H      0
    1.4217   -0.9875    0.8463 C      0
    1.5532   -2.2951    0.1592 C      0
    0.3927   -2.4024   -0.8678 C      0
    0.8080   -2.5447   -1.9249 H      0
    2.9768   -2.6196   -0.4203 C      0
    3.0987   -3.9781    0.2936 C      0
    2.1901   -4.5728    0.1866 H      0
    3.2887   -3.8955    1.3586 H      0
    3.9189   -4.5411   -0.1484 H      0
    3.0835   -3.4307   -1.7486 C      0
    2.7311   -4.4619   -1.6504 H      0
    4.1255   -3.5039   -2.0601 H      0
    2.5157   -3.0368   -2.5899 H      0
    4.3298   -2.0083    0.1500 C      0
    5.6716   -1.4711   -0.3357 C      0
    5.6567   -1.3153   -1.4643 H      0
    6.2891   -0.6371    0.8222 C      0
    6.5074    0.4370    0.5143 H      0
    5.3164   -0.7152    1.9833 C      0
    5.0364    0.3657    2.2315 H      0
    4.0707   -1.5032    1.5145 C      0
    2.7213   -0.7602    1.7017 C      0
    2.3342   -1.7912    2.7985 C      0
    1.4808   -1.4577    3.3959 H      0
    3.1668   -1.9727    3.4841 H      0
    2.0749   -2.7729    2.4109 H      0
    2.6524    0.3304    2.7970 C      0
    3.4014    1.1122    2.7013 H      0
    2.8343   -0.0989    3.7789 H      0
    1.6573    0.7795    2.8416 H      0
  1  2  1
  2  3  1
  2  4  1
  2  5  1
  5  6  3
  6  7  1
  7  8  1
  8  9  3
  7 10  1
 10 11  1
 11 12  1
 12 13  3
 11 14  1
 14 15  3
 15 16  1
 16 17  1
 16 18  1
 16 19  1
 11 20  1
 20 21  1
 20 22  4
 11 22  1
 22 23  1
 22 24  4
 11 24  1
 24 25  4
 11 25  1
 25 26  4
 20 26  4
 11 26  1
 26 27  1
 25 28  1
 28 29  1
 29 30  1
 29 31  1
 29 32  1
 28 33  1
 33 34  1
 33 35  1
 33 36  1
 28 37  1
  7 37  1
 37 38  4
  7 38  1
 38 39  1
 38 40  4
  7 40  1
 40 41  1
 40 42  4
  7 42  1
 42 43  1
 42 44  4
 37 44  4
  7 44  1
 44 45  1
 24 45  1
 45 46  1
 46 47  1
 46 48  1
 46 49  1
 45 50  1
 50 51  1
 50 52  1
 50 53  1
M  CHG  1  11   1
M  END
$$$$
