
     RDKit          3D

 29 30  0  0  0  0  0  0  0  0999 V2000
    0.5964   -1.3960    4.1961 Cl  0  0  0  0  0  0  0  0  0  0  0  0
    1.9940   -0.7868    1.8771 Au  0  0  0  0  0  3  0  0  0  0  0  0
    0.4619   -0.3425    0.8292 C   0  0  0  0  0  0  0  0  0  0  0  0
    1.1748   -0.0245   -0.3771 N   0  0  0  0  0  0  0  0  0  0  0  0
    1.3181   -0.9033   -1.5468 C   0  0  0  0  0  0  0  0  0  0  0  0
    2.6217   -0.5318   -2.1865 C   0  0  0  0  0  0  0  0  0  0  0  0
    3.0487    0.7798   -1.5907 C   0  0  0  0  0  0  0  0  0  0  0  0
    1.9015    1.1836   -0.7369 C   0  0  0  0  0  0  0  0  0  0  0  0
   -0.9437   -0.1967    0.7129 N   0  0  0  0  0  0  0  0  0  0  0  0
   -2.0570   -1.1231    0.6131 C   0  0  0  0  0  0  0  0  0  0  0  0
   -3.2165   -0.5529    1.3592 C   0  0  0  0  0  0  0  0  0  0  0  0
   -2.8728    0.8831    1.5517 C   0  0  0  0  0  0  0  0  0  0  0  0
   -1.6640    1.0610    0.6620 C   0  0  0  0  0  0  0  0  0  0  0  0
    0.5251   -0.7571   -2.2900 H   0  0  0  0  0  0  0  0  0  0  0  0
    1.3805   -1.9689   -1.2323 H   0  0  0  0  0  0  0  0  0  0  0  0
    3.4089   -1.3088   -1.9855 H   0  0  0  0  0  0  0  0  0  0  0  0
    2.5799   -0.4325   -3.2937 H   0  0  0  0  0  0  0  0  0  0  0  0
    3.3066    1.5551   -2.3372 H   0  0  0  0  0  0  0  0  0  0  0  0
    3.9932    0.6301   -0.9941 H   0  0  0  0  0  0  0  0  0  0  0  0
    2.3031    1.6733    0.1899 H   0  0  0  0  0  0  0  0  0  0  0  0
    1.2075    1.8952   -1.2060 H   0  0  0  0  0  0  0  0  0  0  0  0
   -1.7659   -2.0946    1.1109 H   0  0  0  0  0  0  0  0  0  0  0  0
   -2.2737   -1.3272   -0.4548 H   0  0  0  0  0  0  0  0  0  0  0  0
   -3.3367   -1.0401    2.3656 H   0  0  0  0  0  0  0  0  0  0  0  0
   -4.1548   -0.7045    0.7854 H   0  0  0  0  0  0  0  0  0  0  0  0
   -3.7385    1.5033    1.2404 H   0  0  0  0  0  0  0  0  0  0  0  0
   -2.6600    1.1252    2.6119 H   0  0  0  0  0  0  0  0  0  0  0  0
   -2.0650    1.2715   -0.3459 H   0  0  0  0  0  0  0  0  0  0  0  0
   -1.0733    1.9301    1.0213 H   0  0  0  0  0  0  0  0  0  0  0  0
  1  2  1  0
  2  3  2  3
  3  4  1  0
  4  5  1  0
  5  6  1  0
  6  7  1  0
  7  8  1  0
  3  9  1  0
  9 10  1  0
 10 11  1  0
 11 12  1  0
 12 13  1  0
  8  4  1  0
 13  9  1  0
  5 14  1  0
  5 15  1  0
  6 16  1  0
  6 17  1  0
  7 18  1  0
  7 19  1  0
  8 20  1  0
  8 21  1  0
 10 22  1  0
 10 23  1  0
 11 24  1  0
 11 25  1  0
 12 26  1  0
 12 27  1  0
 13 28  1  0
 13 29  1  0
M  END
