
     RDKit          3D

 28 28  0  0  0  0  0  0  0  0999 V2000
   -0.5746    0.5108   -0.1913 C   0  0  0  0  0  0  0  0  0  0  0  0
   -2.0052    0.2513   -0.4433 C   0  0  0  0  0  0  0  0  0  0  0  0
   -2.9371    1.2421   -0.3726 C   0  0  0  0  0  0  0  0  0  0  0  0
   -4.3226    0.9856   -0.6002 C   0  0  0  0  0  0  0  0  0  0  0  0
   -5.4462    0.7623   -0.7859 N   0  0  0  0  0  0  0  0  0  0  0  0
   -2.6019    2.5923   -0.0547 C   0  0  0  0  0  0  0  0  0  0  0  0
   -2.3140    3.6874    0.2004 N   0  0  0  0  0  0  0  0  0  0  0  0
   -2.3981   -1.1795   -0.8118 C   0  0  0  0  0  0  0  0  0  0  0  0
   -2.5985   -2.0627    0.4143 C   0  0  0  0  0  0  0  0  0  0  0  0
    0.4282   -0.3847   -0.2167 C   0  0  0  0  0  0  0  0  0  0  0  0
    1.8311   -0.0367    0.0596 C   0  0  0  0  0  0  0  0  0  0  0  0
    2.4306    1.1186   -0.4649 C   0  0  0  0  0  0  0  0  0  0  0  0
    3.7740    1.3996   -0.2036 C   0  0  0  0  0  0  0  0  0  0  0  0
    4.5202    0.5215    0.5721 C   0  0  0  0  0  0  0  0  0  0  0  0
    5.8083    0.7906    0.8205 F   0  0  0  0  0  0  0  0  0  0  0  0
    3.9504   -0.6354    1.0883 C   0  0  0  0  0  0  0  0  0  0  0  0
    2.6074   -0.9176    0.8275 C   0  0  0  0  0  0  0  0  0  0  0  0
   -0.3033    1.5374    0.0592 H   0  0  0  0  0  0  0  0  0  0  0  0
   -1.6541   -1.6261   -1.4820 H   0  0  0  0  0  0  0  0  0  0  0  0
   -3.3212   -1.1971   -1.4031 H   0  0  0  0  0  0  0  0  0  0  0  0
   -2.8841   -3.0734    0.1052 H   0  0  0  0  0  0  0  0  0  0  0  0
   -3.3937   -1.6712    1.0574 H   0  0  0  0  0  0  0  0  0  0  0  0
   -1.6861   -2.1415    1.0134 H   0  0  0  0  0  0  0  0  0  0  0  0
    0.2602   -1.4379   -0.4202 H   0  0  0  0  0  0  0  0  0  0  0  0
    1.8644    1.8062   -1.0890 H   0  0  0  0  0  0  0  0  0  0  0  0
    4.2416    2.2936   -0.6038 H   0  0  0  0  0  0  0  0  0  0  0  0
    4.5532   -1.3096    1.6882 H   0  0  0  0  0  0  0  0  0  0  0  0
    2.1711   -1.8262    1.2370 H   0  0  0  0  0  0  0  0  0  0  0  0
  1  2  1  0
  2  3  2  0
  3  4  1  0
  4  5  3  0
  3  6  1  0
  6  7  3  0
  2  8  1  0
  8  9  1  0
  1 10  2  0
 10 11  1  0
 11 12  2  0
 12 13  1  0
 13 14  2  0
 14 15  1  0
 14 16  1  0
 16 17  2  0
 17 11  1  0
  1 18  1  0
  8 19  1  0
  8 20  1  0
  9 21  1  0
  9 22  1  0
  9 23  1  0
 10 24  1  0
 12 25  1  0
 13 26  1  0
 16 27  1  0
 17 28  1  0
M  END
