
 OpenBabel08122501183D

114121  0  0  0  0  0  0  0  0999 V2000
    0.9678    0.0814   -0.0484 C   0  0  0  0  0  0  0  0  0  0  0  0
    0.4945    0.8539   -1.1418 O   0  0  0  0  0  0  0  0  0  0  0  0
    1.4972    1.0447   -2.0165 C   0  0  0  0  0  0  0  0  0  0  0  0
    1.4454    2.4056   -2.5428 C   0  0  0  0  0  0  0  0  0  0  0  0
    0.8288    3.2417   -1.3962 O   0  0  0  0  0  0  0  0  0  0  0  0
    0.0003    4.2788   -1.9006 C   0  0  0  0  0  0  0  0  0  0  0  0
    0.0061    2.1853   -0.6427 Eu  0  0  0  0  0  0  0  0  0  0  0  0
    1.7598    2.9147   -2.5476 N   0  0  0  0  0  0  0  0  0  0  0  0
    2.7573    2.1171   -2.8636 C   0  0  0  0  0  0  0  0  0  0  0  0
    3.9854    1.1351   -3.2528 S   0  0  0  0  0  0  0  0  0  0  0  0
   -1.2614    4.5181   -1.0759 N   0  0  0  0  0  0  0  0  0  0  0  0
   -1.8227    4.8145   -2.4018 C   0  0  0  0  0  0  0  0  0  0  0  0
   -2.7440    4.0328   -2.9227 C   0  0  0  0  0  0  0  0  0  0  0  0
   -3.2170    4.3275   -4.1968 C   0  0  0  0  0  0  0  0  0  0  0  0
   -3.0780    5.6656   -4.6281 C   0  0  0  0  0  0  0  0  0  0  0  0
   -1.9310    6.3349   -4.2048 C   0  0  0  0  0  0  0  0  0  0  0  0
   -1.3247    5.9093   -3.1168 C   0  0  0  0  0  0  0  0  0  0  0  0
   -0.0691    6.6153   -2.6316 C   0  0  0  0  0  0  0  0  0  0  0  0
    1.0017    6.5415   -3.7078 C   0  0  0  0  0  0  0  0  0  0  0  0
   -0.3892    8.0712   -2.3343 C   0  0  0  0  0  0  0  0  0  0  0  0
   -3.2783    2.8373   -2.1509 C   0  0  0  0  0  0  0  0  0  0  0  0
   -4.7763    2.9942   -1.9468 C   0  0  0  0  0  0  0  0  0  0  0  0
   -3.0044    1.5644   -2.9352 C   0  0  0  0  0  0  0  0  0  0  0  0
   -1.3928    5.4965    0.0133 C   0  0  0  0  0  0  0  0  0  0  0  0
   -2.5192    5.8834    0.6034 C   0  0  0  0  0  0  0  0  0  0  0  0
   -0.7439    0.0958    0.8764 N   0  0  0  0  0  0  0  0  0  0  0  0
   -1.8482    0.2432    1.8354 C   0  0  0  0  0  0  0  0  0  0  0  0
   -3.0451    0.5772    1.4029 C   0  0  0  0  0  0  0  0  0  0  0  0
   -4.0740    0.6945    2.3311 C   0  0  0  0  0  0  0  0  0  0  0  0
   -3.9167   -0.0174    3.5412 C   0  0  0  0  0  0  0  0  0  0  0  0
   -2.6182   -0.1096    4.0392 C   0  0  0  0  0  0  0  0  0  0  0  0
   -1.6152    0.0211    3.1971 C   0  0  0  0  0  0  0  0  0  0  0  0
   -0.1871   -0.0703    3.7097 C   0  0  0  0  0  0  0  0  0  0  0  0
    0.0506    1.0179    4.7439 C   0  0  0  0  0  0  0  0  0  0  0  0
    0.0364   -1.4322    4.3467 C   0  0  0  0  0  0  0  0  0  0  0  0
   -3.2970    0.8287   -0.0749 C   0  0  0  0  0  0  0  0  0  0  0  0
   -4.3473   -0.1456   -0.5828 C   0  0  0  0  0  0  0  0  0  0  0  0
   -3.7911    2.2530   -0.2694 C   0  0  0  0  0  0  0  0  0  0  0  0
   -2.2196    6.7843    1.7229 C   0  0  0  0  0  0  0  0  0  0  0  0
   -2.9938    7.5277    2.7349 C   0  0  0  0  0  0  0  0  0  0  0  0
   -2.3527    8.2698    3.6212 C   0  0  0  0  0  0  0  0  0  0  0  0
   -0.8777    8.3841    3.6372 C   0  0  0  0  0  0  0  0  0  0  0  0
   -0.1896    7.7231    2.7374 C   0  0  0  0  0  0  0  0  0  0  0  0
    1.2767    7.7147    2.5982 C   0  0  0  0  0  0  0  0  0  0  0  0
    1.8090    6.9908    1.6306 C   0  0  0  0  0  0  0  0  0  0  0  0
    1.0304    6.1859    0.6749 C   0  0  0  0  0  0  0  0  0  0  0  0
   -0.2767    6.1313    0.7315 C   0  0  0  0  0  0  0  0  0  0  0  0
   -0.9332    6.9160    1.7775 C   0  0  0  0  0  0  0  0  0  0  0  0
    0.1718    2.3213    0.8453 O   0  0  0  0  0  0  0  0  0  0  0  0
    1.0871    3.3699    1.1261 C   0  0  0  0  0  0  0  0  0  0  0  0
   -1.0181    2.6033    1.4034 C   0  0  0  0  0  0  0  0  0  0  0  0
   -2.0959    2.2079    0.5019 C   0  0  0  0  0  0  0  0  0  0  0  0
   -1.4978    2.3687   -0.9161 O   0  0  0  0  0  0  0  0  0  0  0  0
   -1.9884    1.3724   -1.8010 C   0  0  0  0  0  0  0  0  0  0  0  0
    0.6111   -0.9232   -0.1406 H   0  0  0  0  0  0  0  0  0  0  0  0
    0.6111    0.5038    0.8677 H   0  0  0  0  0  0  0  0  0  0  0  0
    2.0378    0.0814   -0.0484 H   0  0  0  0  0  0  0  0  0  0  0  0
    1.3968    0.3504   -2.8244 H   0  0  0  0  0  0  0  0  0  0  0  0
    2.4335    0.8910   -1.5218 H   0  0  0  0  0  0  0  0  0  0  0  0
    2.4097    2.7655   -2.8355 H   0  0  0  0  0  0  0  0  0  0  0  0
    0.8295    2.4499   -3.4166 H   0  0  0  0  0  0  0  0  0  0  0  0
   -0.7197    3.8640   -2.5748 H   0  0  0  0  0  0  0  0  0  0  0  0
   -0.5059    4.7577   -1.0886 H   0  0  0  0  0  0  0  0  0  0  0  0
    0.6021    4.9961   -2.4185 H   0  0  0  0  0  0  0  0  0  0  0  0
   -3.6631    3.5794   -4.8184 H   0  0  0  0  0  0  0  0  0  0  0  0
   -3.8126    6.1391   -5.2454 H   0  0  0  0  0  0  0  0  0  0  0  0
   -1.5528    7.1738   -4.7508 H   0  0  0  0  0  0  0  0  0  0  0  0
    0.2863    6.1393   -1.7416 H   0  0  0  0  0  0  0  0  0  0  0  0
    0.6463    7.0174   -4.5978 H   0  0  0  0  0  0  0  0  0  0  0  0
    1.8856    7.0384   -3.3662 H   0  0  0  0  0  0  0  0  0  0  0  0
    1.2270    5.5166   -3.9170 H   0  0  0  0  0  0  0  0  0  0  0  0
   -1.1430    8.1231   -1.5767 H   0  0  0  0  0  0  0  0  0  0  0  0
    0.4947    8.5681   -1.9927 H   0  0  0  0  0  0  0  0  0  0  0  0
   -0.7446    8.5471   -3.2243 H   0  0  0  0  0  0  0  0  0  0  0  0
   -2.7926    2.7812   -1.1991 H   0  0  0  0  0  0  0  0  0  0  0  0
   -5.2620    3.0503   -2.8986 H   0  0  0  0  0  0  0  0  0  0  0  0
   -5.1523    2.1526   -1.4035 H   0  0  0  0  0  0  0  0  0  0  0  0
   -4.9691    3.8903   -1.3947 H   0  0  0  0  0  0  0  0  0  0  0  0
   -1.9498    1.4539   -3.0788 H   0  0  0  0  0  0  0  0  0  0  0  0
   -3.3804    0.7228   -2.3919 H   0  0  0  0  0  0  0  0  0  0  0  0
   -3.4901    1.6204   -3.8870 H   0  0  0  0  0  0  0  0  0  0  0  0
   -4.9399    1.2929    2.1388 H   0  0  0  0  0  0  0  0  0  0  0  0
   -4.7484   -0.4612    4.0474 H   0  0  0  0  0  0  0  0  0  0  0  0
   -2.4412   -0.2824    5.0802 H   0  0  0  0  0  0  0  0  0  0  0  0
    0.4935    0.0579    2.8941 H   0  0  0  0  0  0  0  0  0  0  0  0
   -0.6300    0.8896    5.5595 H   0  0  0  0  0  0  0  0  0  0  0  0
    1.0558    0.9536    5.1048 H   0  0  0  0  0  0  0  0  0  0  0  0
   -0.1067    1.9766    4.2955 H   0  0  0  0  0  0  0  0  0  0  0  0
   -0.1310   -2.1983    3.6187 H   0  0  0  0  0  0  0  0  0  0  0  0
    1.0416   -1.4965    4.7075 H   0  0  0  0  0  0  0  0  0  0  0  0
   -0.6443   -1.5605    5.1623 H   0  0  0  0  0  0  0  0  0  0  0  0
   -2.3873    0.6891   -0.6206 H   0  0  0  0  0  0  0  0  0  0  0  0
   -5.2570   -0.0060   -0.0371 H   0  0  0  0  0  0  0  0  0  0  0  0
   -4.5246    0.0314   -1.6231 H   0  0  0  0  0  0  0  0  0  0  0  0
   -3.9995   -1.1482   -0.4459 H   0  0  0  0  0  0  0  0  0  0  0  0
   -3.0518    2.9389    0.0882 H   0  0  0  0  0  0  0  0  0  0  0  0
   -3.9684    2.4301   -1.3096 H   0  0  0  0  0  0  0  0  0  0  0  0
   -4.7008    2.3926    0.2763 H   0  0  0  0  0  0  0  0  0  0  0  0
   -4.0620    7.4669    2.7513 H   0  0  0  0  0  0  0  0  0  0  0  0
   -2.9202    8.8065    4.3525 H   0  0  0  0  0  0  0  0  0  0  0  0
   -0.3837    8.9921    4.3660 H   0  0  0  0  0  0  0  0  0  0  0  0
    1.8945    8.2804    3.2639 H   0  0  0  0  0  0  0  0  0  0  0  0
    2.8747    6.9891    1.5349 H   0  0  0  0  0  0  0  0  0  0  0  0
    1.5443    5.6328   -0.0832 H   0  0  0  0  0  0  0  0  0  0  0  0
    0.7128    4.2876    0.7229 H   0  0  0  0  0  0  0  0  0  0  0  0
    1.2042    3.4671    2.1852 H   0  0  0  0  0  0  0  0  0  0  0  0
    2.0342    3.1452    0.6817 H   0  0  0  0  0  0  0  0  0  0  0  0
   -1.0805    3.6556    1.5869 H   0  0  0  0  0  0  0  0  0  0  0  0
   -1.1129    2.0690    2.3256 H   0  0  0  0  0  0  0  0  0  0  0  0
   -2.9773    2.7986    0.6398 H   0  0  0  0  0  0  0  0  0  0  0  0
   -2.3821    1.1920    0.6781 H   0  0  0  0  0  0  0  0  0  0  0  0
   -1.7252    0.4042   -1.4292 H   0  0  0  0  0  0  0  0  0  0  0  0
   -3.0533    1.4503   -1.8707 H   0  0  0  0  0  0  0  0  0  0  0  0
   -1.5564    1.5119   -2.7700 H   0  0  0  0  0  0  0  0  0  0  0  0
  1  2  1  0  0  0  0
  1 55  1  0  0  0  0
  1 56  1  0  0  0  0
  1 57  1  0  0  0  0
  2  3  1  0  0  0  0
  2  7  1  0  0  0  0
  3  4  1  0  0  0  0
  3 58  1  0  0  0  0
  3 59  1  0  0  0  0
  4  5  1  0  0  0  0
  4 60  1  0  0  0  0
  4 61  1  0  0  0  0
  5  6  1  0  0  0  0
  5  7  1  0  0  0  0
  6 62  1  0  0  0  0
  6 63  1  0  0  0  0
  6 64  1  0  0  0  0
  7  8  1  0  0  0  0
  7 11  1  0  0  0  0
  7 26  1  0  0  0  0
  7 49  1  0  0  0  0
  7 53  1  0  0  0  0
  8  9  2  0  0  0  0
  9 10  2  0  0  0  0
 11 12  1  0  0  0  0
 11 24  1  0  0  0  0
 12 13  1  0  0  0  0
 12 17  2  0  0  0  0
 13 14  2  0  0  0  0
 13 21  1  0  0  0  0
 14 15  1  0  0  0  0
 14 65  1  0  0  0  0
 15 16  2  0  0  0  0
 15 66  1  0  0  0  0
 16 17  1  0  0  0  0
 16 67  1  0  0  0  0
 17 18  1  0  0  0  0
 18 19  1  0  0  0  0
 18 20  1  0  0  0  0
 18 68  1  0  0  0  0
 19 69  1  0  0  0  0
 19 70  1  0  0  0  0
 19 71  1  0  0  0  0
 20 72  1  0  0  0  0
 20 73  1  0  0  0  0
 20 74  1  0  0  0  0
 21 22  1  0  0  0  0
 21 23  1  0  0  0  0
 21 75  1  0  0  0  0
 22 76  1  0  0  0  0
 22 77  1  0  0  0  0
 22 78  1  0  0  0  0
 23 79  1  0  0  0  0
 23 80  1  0  0  0  0
 23 81  1  0  0  0  0
 24 25  2  0  0  0  0
 24 47  1  0  0  0  0
 25 26  1  0  0  0  0
 25 39  1  0  0  0  0
 26 27  1  0  0  0  0
 27 28  1  0  0  0  0
 27 32  2  0  0  0  0
 28 29  2  0  0  0  0
 28 36  1  0  0  0  0
 29 30  1  0  0  0  0
 29 82  1  0  0  0  0
 30 31  2  0  0  0  0
 30 83  1  0  0  0  0
 31 32  1  0  0  0  0
 31 84  1  0  0  0  0
 32 33  1  0  0  0  0
 33 34  1  0  0  0  0
 33 35  1  0  0  0  0
 33 85  1  0  0  0  0
 34 86  1  0  0  0  0
 34 87  1  0  0  0  0
 34 88  1  0  0  0  0
 35 89  1  0  0  0  0
 35 90  1  0  0  0  0
 35 91  1  0  0  0  0
 36 37  1  0  0  0  0
 36 38  1  0  0  0  0
 36 92  1  0  0  0  0
 37 93  1  0  0  0  0
 37 94  1  0  0  0  0
 37 95  1  0  0  0  0
 38 96  1  0  0  0  0
 38 97  1  0  0  0  0
 38 98  1  0  0  0  0
 39 40  1  0  0  0  0
 39 48  2  0  0  0  0
 40 41  2  0  0  0  0
 40 99  1  0  0  0  0
 41 42  1  0  0  0  0
 41100  1  0  0  0  0
 42 43  2  0  0  0  0
 42101  1  0  0  0  0
 43 44  1  0  0  0  0
 43 48  1  0  0  0  0
 44 45  2  0  0  0  0
 44102  1  0  0  0  0
 45 46  1  0  0  0  0
 45103  1  0  0  0  0
 46 47  2  0  0  0  0
 46104  1  0  0  0  0
 47 48  1  0  0  0  0
 49 50  1  0  0  0  0
 49 51  1  0  0  0  0
 50105  1  0  0  0  0
 50106  1  0  0  0  0
 50107  1  0  0  0  0
 51 52  1  0  0  0  0
 51108  1  0  0  0  0
 51109  1  0  0  0  0
 52 53  1  0  0  0  0
 52110  1  0  0  0  0
 52111  1  0  0  0  0
 53 54  1  0  0  0  0
 54112  1  0  0  0  0
 54113  1  0  0  0  0
 54114  1  0  0  0  0
M  END
$$$$
