
 OpenBabel08122501183D

 71 77  0  0  0  0  0  0  0  0999 V2000
    0.9258    0.0110    0.0662 C   0  0  0  0  0  0  0  0  0  0  0  0
    0.3225    0.9350   -1.3685 S   0  0  0  0  0  0  0  0  0  0  0  0
   -1.4875    0.9350   -1.3685 C   0  0  0  0  0  0  0  0  0  0  0  0
    0.8326    2.3763   -1.2984 O   0  0  0  0  0  0  0  0  0  0  0  0
    0.1997    4.0830   -3.1828 U   0  3  0  0  0  0  0  0  0  0  0  0
   -0.3077    2.3312   -5.0637 O   0  0  0  0  0  0  0  0  0  0  0  0
   -1.1892    2.6649   -6.1257 C   0  0  0  0  0  0  0  0  0  0  0  0
   -1.4353    1.8151   -7.0381 O   0  0  0  0  0  0  0  0  0  0  0  0
    1.6203    2.6508    2.9773 C   0  0  0  0  0  0  0  0  0  0  0  0
    1.6136    2.0434    1.6387 N   0  0  0  0  0  0  0  0  0  0  0  0
    2.9041    1.7378    0.8775 C   0  0  0  0  0  0  0  0  0  0  0  0
    3.4918    3.0353    0.3199 C   0  0  0  0  0  0  0  0  0  0  0  0
    3.6714    2.9087   -1.1934 N   0  0  0  0  0  4  0  0  0  0  0  0
    2.4103    3.4029   -1.9050 C   0  0  0  0  0  0  0  0  0  0  0  0
    1.8536    2.2876   -2.7937 C   0  0  0  0  0  0  0  0  0  0  0  0
    0.4255    2.6283   -3.2214 N   0  0  0  0  0  0  0  0  0  0  0  0
   -0.6001    1.8950   -2.3560 C   0  0  0  0  0  0  0  0  0  0  0  0
   -0.2691    2.0758   -0.8741 C   0  0  0  0  0  0  0  0  0  0  0  0
   -1.1221    1.1150   -0.0424 N   0  0  0  0  0  0  0  0  0  0  0  0
   -0.7441    1.2355    1.4350 C   0  0  0  0  0  0  0  0  0  0  0  0
    0.7108    0.8083    1.6329 C   0  0  0  0  0  0  0  0  0  0  0  0
    2.5226    6.0623   -1.2400 C   0  0  0  0  0  0  0  0  0  0  0  0
    3.3967    5.2737   -2.2015 C   0  0  0  0  0  0  0  0  0  0  0  0
    4.6593    5.4165   -2.1754 O   0  0  0  0  0  0  0  0  0  0  0  0
    2.8025    4.3774   -3.1289 O   0  0  0  0  0  0  0  0  0  0  0  0
    0.2192    2.2780   -4.6839 C   0  0  0  0  0  0  0  0  0  0  0  0
   -0.0299    3.4456   -5.3073 C   0  0  0  0  0  0  0  0  0  0  0  0
   -0.2290    3.5593   -6.5574 O   0  0  0  0  0  0  0  0  0  0  0  0
   -0.0420    4.4707   -4.4481 O   0  0  0  0  0  0  0  0  0  0  0  0
    1.6287    2.0083   -2.4632 O   0  0  0  0  0  0  0  0  0  0  0  0
    2.5901    1.3581   -3.4609 S   0  0  0  0  0  0  0  0  0  0  0  0
    3.8211    2.5739   -3.9924 C   0  0  0  0  0  0  0  0  0  0  0  0
    3.4249   -0.0400   -2.6708 C   0  0  0  0  0  0  0  0  0  0  0  0
    0.5692   -0.9966    0.0172 H   0  0  0  0  0  0  0  0  0  0  0  0
    0.5692    0.4724    0.9633 H   0  0  0  0  0  0  0  0  0  0  0  0
    1.9958    0.0110    0.0662 H   0  0  0  0  0  0  0  0  0  0  0  0
   -1.8442    1.3964   -0.4714 H   0  0  0  0  0  0  0  0  0  0  0  0
   -1.8442    1.4813   -2.2166 H   0  0  0  0  0  0  0  0  0  0  0  0
   -1.8442   -0.0726   -1.4175 H   0  0  0  0  0  0  0  0  0  0  0  0
    0.6286    2.9603    3.2335 H   0  0  0  0  0  0  0  0  0  0  0  0
    1.9663    1.9340    3.6925 H   0  0  0  0  0  0  0  0  0  0  0  0
    2.1406    2.4564    2.4082 H   0  0  0  0  0  0  0  0  0  0  0  0
    3.6098    1.2855    1.5426 H   0  0  0  0  0  0  0  0  0  0  0  0
    2.6913    1.0679    0.0707 H   0  0  0  0  0  0  0  0  0  0  0  0
    4.4419    3.2198    0.7762 H   0  0  0  0  0  0  0  0  0  0  0  0
    2.8282    3.8471    0.5330 H   0  0  0  0  0  0  0  0  0  0  0  0
    4.6222    2.5403   -1.2188 H   0  0  0  0  0  0  0  0  0  0  0  0
    2.6521    4.2522   -2.5091 H   0  0  0  0  0  0  0  0  0  0  0  0
    1.6757    3.6791   -1.1776 H   0  0  0  0  0  0  0  0  0  0  0  0
    1.8478    1.3691   -2.2449 H   0  0  0  0  0  0  0  0  0  0  0  0
    2.4696    2.1854   -3.6626 H   0  0  0  0  0  0  0  0  0  0  0  0
    0.5499    3.1728   -2.3680 H   0  0  0  0  0  0  0  0  0  0  0  0
   -0.5745    0.8521   -2.5939 H   0  0  0  0  0  0  0  0  0  0  0  0
   -1.5746    2.2914   -2.5511 H   0  0  0  0  0  0  0  0  0  0  0  0
   -0.4775    3.0837   -0.5815 H   0  0  0  0  0  0  0  0  0  0  0  0
    0.7673    1.8653   -0.7114 H   0  0  0  0  0  0  0  0  0  0  0  0
   -1.7539    0.3297    0.1146 H   0  0  0  0  0  0  0  0  0  0  0  0
   -1.3810    0.6016    2.0160 H   0  0  0  0  0  0  0  0  0  0  0  0
   -0.8623    2.2511    1.7504 H   0  0  0  0  0  0  0  0  0  0  0  0
    1.0020    0.1598    0.8332 H   0  0  0  0  0  0  0  0  0  0  0  0
    0.8067    0.2931    2.5658 H   0  0  0  0  0  0  0  0  0  0  0  0
    2.6677    7.1097   -1.4033 H   0  0  0  0  0  0  0  0  0  0  0  0
    1.4952    5.8142   -1.4067 H   0  0  0  0  0  0  0  0  0  0  0  0
    1.0749    1.7852   -5.0961 H   0  0  0  0  0  0  0  0  0  0  0  0
   -0.6107    1.6117   -4.7943 H   0  0  0  0  0  0  0  0  0  0  0  0
    4.3703    2.9206   -3.1421 H   0  0  0  0  0  0  0  0  0  0  0  0
    4.4933    2.1193   -4.6899 H   0  0  0  0  0  0  0  0  0  0  0  0
    3.3276    3.4004   -4.4595 H   0  0  0  0  0  0  0  0  0  0  0  0
    3.9741    0.3067   -1.8204 H   0  0  0  0  0  0  0  0  0  0  0  0
    2.6972   -0.7587   -2.3565 H   0  0  0  0  0  0  0  0  0  0  0  0
    4.0971   -0.4946   -3.3683 H   0  0  0  0  0  0  0  0  0  0  0  0
  1  2  1  0  0  0  0
  1 34  1  0  0  0  0
  1 35  1  0  0  0  0
  1 36  1  0  0  0  0
  2  3  1  0  0  0  0
  2  4  2  0  0  0  0
  3 37  1  0  0  0  0
  3 38  1  0  0  0  0
  3 39  1  0  0  0  0
  4  5  1  0  0  0  0
  5  6  1  0  0  0  0
  5 10  1  0  0  0  0
  5 13  1  0  0  0  0
  5 16  1  0  0  0  0
  5 19  1  0  0  0  0
  5 25  1  0  0  0  0
  5 29  1  0  0  0  0
  5 30  1  0  0  0  0
  6  7  1  0  0  0  0
  7  8  2  0  0  0  0
  7  9  1  0  0  0  0
  9 10  1  0  0  0  0
  9 40  1  0  0  0  0
  9 41  1  0  0  0  0
 10 11  1  0  0  0  0
 10 21  1  0  0  0  0
 10 42  1  0  0  0  0
 11 12  1  0  0  0  0
 11 43  1  0  0  0  0
 11 44  1  0  0  0  0
 12 13  1  0  0  0  0
 12 45  1  0  0  0  0
 12 46  1  0  0  0  0
 13 14  1  0  0  0  0
 13 47  1  0  0  0  0
 14 15  1  0  0  0  0
 14 48  1  0  0  0  0
 14 49  1  0  0  0  0
 15 16  1  0  0  0  0
 15 50  1  0  0  0  0
 15 51  1  0  0  0  0
 16 17  1  0  0  0  0
 16 26  1  0  0  0  0
 16 52  1  0  0  0  0
 17 18  1  0  0  0  0
 17 53  1  0  0  0  0
 17 54  1  0  0  0  0
 18 19  1  0  0  0  0
 18 55  1  0  0  0  0
 18 56  1  0  0  0  0
 19 20  1  0  0  0  0
 19 22  1  0  0  0  0
 19 57  1  0  0  0  0
 20 21  1  0  0  0  0
 20 58  1  0  0  0  0
 20 59  1  0  0  0  0
 21 60  1  0  0  0  0
 21 61  1  0  0  0  0
 22 23  1  0  0  0  0
 22 62  1  0  0  0  0
 22 63  1  0  0  0  0
 23 24  2  0  0  0  0
 23 25  1  0  0  0  0
 26 27  1  0  0  0  0
 26 64  1  0  0  0  0
 26 65  1  0  0  0  0
 27 28  2  0  0  0  0
 27 29  1  0  0  0  0
 30 31  2  0  0  0  0
 31 32  1  0  0  0  0
 31 33  1  0  0  0  0
 32 66  1  0  0  0  0
 32 67  1  0  0  0  0
 32 68  1  0  0  0  0
 33 69  1  0  0  0  0
 33 70  1  0  0  0  0
 33 71  1  0  0  0  0
M  CHG  1   5   1
M  END
$$$$
