
 OpenBabel08122501183D

 42 41  0  0  0  0  0  0  0  0999 V2000
    0.9925   -0.0841    0.0536 C   0  0  0  0  0  0  0  0  0  0  0  0
    0.2858    1.6753    1.0021 Pt  0  0  0  0  0  0  0  0  0  0  0  0
    2.0168    2.7170    0.3595 C   0  0  0  0  0  0  0  0  0  0  0  0
   -0.7135    2.2355   -0.7816 C   0  0  0  0  0  0  0  0  0  0  0  0
   -0.4042    3.3931    1.9283 N   0  0  0  0  0  0  0  0  0  0  0  0
    0.2827    4.4613    1.8790 N   0  3  0  0  0  0  0  0  0  0  0  0
    0.9695    5.5295    1.8297 N   0  5  0  0  0  0  0  0  0  0  0  0
   -1.6982    0.4812    1.7387 P   0  0  0  0  0  4  0  0  0  0  0  0
   -1.2916   -1.2865    1.9809 C   0  0  0  0  0  0  0  0  0  0  0  0
   -2.2877    1.1935    3.3180 C   0  0  0  0  0  0  0  0  0  0  0  0
   -3.0096    0.6374    0.4719 C   0  0  0  0  0  0  0  0  0  0  0  0
    1.4314    1.0331    3.0467 P   0  0  0  0  0  4  0  0  0  0  0  0
    0.7865   -0.5783    3.6269 C   0  0  0  0  0  0  0  0  0  0  0  0
    3.2265    0.8901    2.7211 C   0  0  0  0  0  0  0  0  0  0  0  0
    1.1438    2.3037    4.3319 C   0  0  0  0  0  0  0  0  0  0  0  0
    0.6358   -0.1135   -0.9548 H   0  0  0  0  0  0  0  0  0  0  0  0
    0.6359   -0.9427    0.5832 H   0  0  0  0  0  0  0  0  0  0  0  0
    2.0625   -0.0841    0.0536 H   0  0  0  0  0  0  0  0  0  0  0  0
    2.3615    2.3005   -0.5639 H   0  0  0  0  0  0  0  0  0  0  0  0
    1.7790    3.7506    0.2179 H   0  0  0  0  0  0  0  0  0  0  0  0
    2.7836    2.6256    1.1002 H   0  0  0  0  0  0  0  0  0  0  0  0
   -1.7631    2.3191   -0.5912 H   0  0  0  0  0  0  0  0  0  0  0  0
   -0.3365    3.1777   -1.1208 H   0  0  0  0  0  0  0  0  0  0  0  0
   -0.5454    1.4926   -1.5331 H   0  0  0  0  0  0  0  0  0  0  0  0
   -0.5248   -1.3779    2.7216 H   0  0  0  0  0  0  0  0  0  0  0  0
   -2.1652   -1.8123    2.3052 H   0  0  0  0  0  0  0  0  0  0  0  0
   -0.9469   -1.7030    1.0575 H   0  0  0  0  0  0  0  0  0  0  0  0
   -2.5255    2.2271    3.1764 H   0  0  0  0  0  0  0  0  0  0  0  0
   -3.1614    0.6677    3.6423 H   0  0  0  0  0  0  0  0  0  0  0  0
   -1.5209    1.1021    4.0587 H   0  0  0  0  0  0  0  0  0  0  0  0
   -3.2474    1.6710    0.3303 H   0  0  0  0  0  0  0  0  0  0  0  0
   -2.6650    0.2210   -0.4515 H   0  0  0  0  0  0  0  0  0  0  0  0
   -3.8833    0.1116    0.7962 H   0  0  0  0  0  0  0  0  0  0  0  0
    0.9546   -1.3212    2.8754 H   0  0  0  0  0  0  0  0  0  0  0  0
    1.2909   -0.8611    4.5272 H   0  0  0  0  0  0  0  0  0  0  0  0
   -0.2631   -0.4947    3.8173 H   0  0  0  0  0  0  0  0  0  0  0  0
    3.6035    1.8323    2.3818 H   0  0  0  0  0  0  0  0  0  0  0  0
    3.7309    0.6074    3.6213 H   0  0  0  0  0  0  0  0  0  0  0  0
    3.3946    0.1472    1.9696 H   0  0  0  0  0  0  0  0  0  0  0  0
    1.5209    3.2458    3.9927 H   0  0  0  0  0  0  0  0  0  0  0  0
    0.0942    2.3872    4.5223 H   0  0  0  0  0  0  0  0  0  0  0  0
    1.6482    2.0209    5.2322 H   0  0  0  0  0  0  0  0  0  0  0  0
  1  2  1  0  0  0  0
  1 16  1  0  0  0  0
  1 17  1  0  0  0  0
  1 18  1  0  0  0  0
  2  3  1  0  0  0  0
  2  4  1  0  0  0  0
  2  5  1  0  0  0  0
  2  8  1  0  0  0  0
  2 12  1  0  0  0  0
  3 19  1  0  0  0  0
  3 20  1  0  0  0  0
  3 21  1  0  0  0  0
  4 22  1  0  0  0  0
  4 23  1  0  0  0  0
  4 24  1  0  0  0  0
  5  6  2  0  0  0  0
  6  7  2  0  0  0  0
  8  9  1  0  0  0  0
  8 10  1  0  0  0  0
  8 11  1  0  0  0  0
  9 25  1  0  0  0  0
  9 26  1  0  0  0  0
  9 27  1  0  0  0  0
 10 28  1  0  0  0  0
 10 29  1  0  0  0  0
 10 30  1  0  0  0  0
 11 31  1  0  0  0  0
 11 32  1  0  0  0  0
 11 33  1  0  0  0  0
 12 13  1  0  0  0  0
 12 14  1  0  0  0  0
 12 15  1  0  0  0  0
 13 34  1  0  0  0  0
 13 35  1  0  0  0  0
 13 36  1  0  0  0  0
 14 37  1  0  0  0  0
 14 38  1  0  0  0  0
 14 39  1  0  0  0  0
 15 40  1  0  0  0  0
 15 41  1  0  0  0  0
 15 42  1  0  0  0  0
M  CHG  2   6   1   7  -1
M  END
$$$$
