
     RDKit          3D

 57 60  0  0  0  0  0  0  0  0999 V2000
    4.0823   -2.3843   -2.2091 C   0  0  0  0  0  0  0  0  0  0  0  0
    3.4913   -1.4432   -1.3224 O   0  0  0  0  0  0  0  0  0  0  0  0
    4.3336   -0.7103   -0.5238 C   0  0  0  0  0  0  0  0  0  0  0  0
    5.7294   -0.8203   -0.5313 C   0  0  0  0  0  0  0  0  0  0  0  0
    6.5091   -0.0304    0.3200 C   0  0  0  0  0  0  0  0  0  0  0  0
    5.9042    0.8763    1.1863 C   0  0  0  0  0  0  0  0  0  0  0  0
    4.5158    0.9958    1.2034 C   0  0  0  0  0  0  0  0  0  0  0  0
    3.7288    0.2079    0.3537 C   0  0  0  0  0  0  0  0  0  0  0  0
    2.3046    0.3679    0.4061 C   0  0  0  0  0  0  0  0  0  0  0  0
    1.1126    0.5162    0.4591 C   0  0  0  0  0  0  0  0  0  0  0  0
   -0.3027    0.7202    0.5322 C   0  0  0  0  0  0  0  0  0  0  0  0
   -1.1689   -0.3155    0.5750 C   0  0  0  0  0  0  0  0  0  0  0  0
   -2.5900   -0.0147    0.7196 N   0  0  0  0  0  0  0  0  0  0  0  0
   -3.3020    0.2412   -0.5268 C   0  0  0  0  0  0  0  0  0  0  0  0
   -4.4825    0.9914   -0.4430 C   0  0  0  0  0  0  0  0  0  0  0  0
   -5.2522    1.2397   -1.5811 C   0  0  0  0  0  0  0  0  0  0  0  0
   -4.8589    0.7214   -2.8125 C   0  0  0  0  0  0  0  0  0  0  0  0
   -3.7041   -0.0534   -2.9034 C   0  0  0  0  0  0  0  0  0  0  0  0
   -2.9337   -0.3044   -1.7641 C   0  0  0  0  0  0  0  0  0  0  0  0
   -3.2534   -1.3752    1.6015 S   0  0  0  0  0  0  0  0  0  0  0  0
   -4.4752   -1.8643    1.0007 O   0  0  0  0  0  0  0  0  0  0  0  0
   -3.1286   -1.1207    3.0214 O   0  0  0  0  0  0  0  0  0  0  0  0
   -1.9637   -2.4703    1.1710 C   0  0  0  0  0  0  0  0  0  0  0  0
   -2.0160   -3.8510    1.2906 C   0  0  0  0  0  0  0  0  0  0  0  0
   -0.9121   -4.5728    0.8481 C   0  0  0  0  0  0  0  0  0  0  0  0
    0.1852   -3.9043    0.2872 C   0  0  0  0  0  0  0  0  0  0  0  0
    0.1930   -2.5063    0.1649 C   0  0  0  0  0  0  0  0  0  0  0  0
   -0.8907   -1.7701    0.6278 C   0  0  0  0  0  0  0  0  0  0  0  0
   -0.6885    2.5811    0.6564 Si  0  0  0  0  0  4  0  0  0  0  0  0
   -1.9913    2.9341    1.9632 C   0  0  0  0  0  0  0  0  0  0  0  0
   -1.2227    3.2505   -1.0142 C   0  0  0  0  0  0  0  0  0  0  0  0
    0.8632    3.5472    1.1785 C   0  0  0  0  0  0  0  0  0  0  0  0
    4.7272   -1.8868   -2.9411 H   0  0  0  0  0  0  0  0  0  0  0  0
    4.6284   -3.1571   -1.6577 H   0  0  0  0  0  0  0  0  0  0  0  0
    3.2746   -2.8776   -2.7588 H   0  0  0  0  0  0  0  0  0  0  0  0
    6.2458   -1.5114   -1.1889 H   0  0  0  0  0  0  0  0  0  0  0  0
    7.5925   -0.1245    0.3052 H   0  0  0  0  0  0  0  0  0  0  0  0
    6.5113    1.4900    1.8470 H   0  0  0  0  0  0  0  0  0  0  0  0
    4.0484    1.7060    1.8819 H   0  0  0  0  0  0  0  0  0  0  0  0
   -4.8106    1.3855    0.5158 H   0  0  0  0  0  0  0  0  0  0  0  0
   -6.1630    1.8273   -1.5024 H   0  0  0  0  0  0  0  0  0  0  0  0
   -5.4596    0.9090   -3.6988 H   0  0  0  0  0  0  0  0  0  0  0  0
   -3.4065   -0.4721   -3.8615 H   0  0  0  0  0  0  0  0  0  0  0  0
   -2.0502   -0.9252   -1.8730 H   0  0  0  0  0  0  0  0  0  0  0  0
   -2.8863   -4.3468    1.7095 H   0  0  0  0  0  0  0  0  0  0  0  0
   -0.9030   -5.6576    0.9269 H   0  0  0  0  0  0  0  0  0  0  0  0
    1.0403   -4.4766   -0.0679 H   0  0  0  0  0  0  0  0  0  0  0  0
    1.0440   -2.0314   -0.3112 H   0  0  0  0  0  0  0  0  0  0  0  0
   -1.7422    2.4303    2.9018 H   0  0  0  0  0  0  0  0  0  0  0  0
   -2.0457    4.0094    2.1605 H   0  0  0  0  0  0  0  0  0  0  0  0
   -2.9834    2.6054    1.6477 H   0  0  0  0  0  0  0  0  0  0  0  0
   -2.1772    2.8266   -1.3323 H   0  0  0  0  0  0  0  0  0  0  0  0
   -0.4740    3.0203   -1.7783 H   0  0  0  0  0  0  0  0  0  0  0  0
   -1.3380    4.3378   -0.9683 H   0  0  0  0  0  0  0  0  0  0  0  0
    0.6146    4.6041    1.3132 H   0  0  0  0  0  0  0  0  0  0  0  0
    1.6419    3.4740    0.4139 H   0  0  0  0  0  0  0  0  0  0  0  0
    1.2550    3.1616    2.1241 H   0  0  0  0  0  0  0  0  0  0  0  0
  1  2  1  0
  2  3  1  0
  3  4  2  0
  4  5  1  0
  5  6  2  0
  6  7  1  0
  7  8  2  0
  8  9  1  0
  9 10  3  0
 10 11  1  0
 11 12  2  3
 12 13  1  0
 13 14  1  0
 14 15  2  0
 15 16  1  0
 16 17  2  0
 17 18  1  0
 18 19  2  0
 13 20  1  0
 20 21  2  0
 20 22  2  0
 20 23  1  0
 23 24  2  0
 24 25  1  0
 25 26  2  0
 26 27  1  0
 27 28  2  0
 11 29  1  0
 29 30  1  0
 29 31  1  0
 29 32  1  0
  8  3  1  0
 28 12  1  0
 19 14  1  0
 28 23  1  0
  1 33  1  0
  1 34  1  0
  1 35  1  0
  4 36  1  0
  5 37  1  0
  6 38  1  0
  7 39  1  0
 15 40  1  0
 16 41  1  0
 17 42  1  0
 18 43  1  0
 19 44  1  0
 24 45  1  0
 25 46  1  0
 26 47  1  0
 27 48  1  0
 30 49  1  0
 30 50  1  0
 30 51  1  0
 31 52  1  0
 31 53  1  0
 31 54  1  0
 32 55  1  0
 32 56  1  0
 32 57  1  0
M  END
