
     RDKit          3D

 35 38  0  0  0  0  0  0  0  0999 V2000
    4.5466   -2.0837    0.4834 F   0  0  0  0  0  0  0  0  0  0  0  0
    4.9099   -0.8035    0.1892 C   0  0  0  0  0  0  0  0  0  0  0  0
    5.9481   -0.5119    1.0206 F   0  0  0  0  0  0  0  0  0  0  0  0
    5.4327   -0.8444   -1.0668 F   0  0  0  0  0  0  0  0  0  0  0  0
    3.7619    0.1692    0.3003 C   0  0  0  0  0  0  0  0  0  0  0  0
    3.9820    1.4865    0.7146 C   0  0  0  0  0  0  0  0  0  0  0  0
    2.9170    2.3768    0.7911 C   0  0  0  0  0  0  0  0  0  0  0  0
    1.6266    1.9623    0.4453 C   0  0  0  0  0  0  0  0  0  0  0  0
    1.3668    0.6557    0.0056 C   0  0  0  0  0  0  0  0  0  0  0  0
    2.4564   -0.2309   -0.0525 C   0  0  0  0  0  0  0  0  0  0  0  0
    0.0252    0.2335   -0.3260 N   0  0  0  0  0  0  0  0  0  0  0  0
   -0.2274   -1.2062   -0.4695 C   0  0  0  0  0  0  0  0  0  0  0  0
   -1.6936   -1.6424   -0.4246 C   0  0  0  0  0  0  0  0  0  0  0  0
   -1.7891   -3.3599   -0.9266 Cl  0  0  0  0  0  0  0  0  0  0  0  0
   -2.2316   -1.5403    0.9156 O   0  0  0  0  0  0  0  0  0  0  0  0
   -3.4299   -0.7266    0.7848 C   0  0  0  0  0  0  0  0  0  0  0  0
   -4.6098   -1.0183    2.2538 Br  0  0  0  0  0  0  0  0  0  0  0  0
   -2.9358    0.7113    0.6591 C   0  0  0  0  0  0  0  0  0  0  0  0
   -2.3668    0.6962   -0.7758 C   0  0  0  0  0  0  0  0  0  0  0  0
   -2.6274   -0.7522   -1.2445 C   0  0  0  0  0  0  0  0  0  0  0  0
   -3.9686   -1.1061   -0.5891 C   0  0  0  0  0  0  0  0  0  0  0  0
   -5.6453   -0.0937   -1.3615 I   0  0  0  0  0  0  0  0  0  0  0  0
   -0.9191    1.1481   -0.7956 C   0  0  0  0  0  0  0  0  0  0  0  0
   -0.6777    2.3006   -1.1531 O   0  0  0  0  0  0  0  0  0  0  0  0
    4.9824    1.8233    0.9821 H   0  0  0  0  0  0  0  0  0  0  0  0
    3.0825    3.3996    1.1224 H   0  0  0  0  0  0  0  0  0  0  0  0
    0.8275    2.6921    0.5521 H   0  0  0  0  0  0  0  0  0  0  0  0
    2.3311   -1.2544   -0.3984 H   0  0  0  0  0  0  0  0  0  0  0  0
    0.2104   -1.4949   -1.4339 H   0  0  0  0  0  0  0  0  0  0  0  0
    0.2974   -1.7244    0.3427 H   0  0  0  0  0  0  0  0  0  0  0  0
   -3.7418    1.4484    0.7457 H   0  0  0  0  0  0  0  0  0  0  0  0
   -2.1766    0.9543    1.4116 H   0  0  0  0  0  0  0  0  0  0  0  0
   -2.9263    1.3978   -1.4070 H   0  0  0  0  0  0  0  0  0  0  0  0
   -2.5545   -0.8827   -2.3273 H   0  0  0  0  0  0  0  0  0  0  0  0
   -4.1831   -2.1791   -0.6473 H   0  0  0  0  0  0  0  0  0  0  0  0
  1  2  1  0
  2  3  1  0
  2  4  1  0
  2  5  1  0
  5  6  2  0
  6  7  1  0
  7  8  2  0
  8  9  1  0
  9 10  2  0
  9 11  1  0
 11 12  1  0
 12 13  1  0
 13 14  1  0
 13 15  1  0
 15 16  1  0
 16 17  1  0
 16 18  1  0
 18 19  1  0
 19 20  1  0
 20 21  1  0
 21 22  1  0
 19 23  1  0
 23 24  2  0
 10  5  1  0
 23 11  1  0
 20 13  1  0
 21 16  1  0
  6 25  1  0
  7 26  1  0
  8 27  1  0
 10 28  1  0
 12 29  1  0
 12 30  1  0
 18 31  1  0
 18 32  1  0
 19 33  1  0
 20 34  1  0
 21 35  1  0
M  END
