
 OpenBabel09252518533D

 42 41  0  0  0  0  0  0  0  0999 V2000
    1.0280    0.0660    0.0697 C   0  0  0  0  0  0  0  0  0  0  0  0
    0.3213    2.0319    0.4303 Pt  0  0  0  0  0  0  0  0  0  0  0  0
    2.0523    2.8251   -0.5019 C   0  0  0  0  0  0  0  0  0  0  0  0
   -0.6781    2.0156   -1.4393 C   0  0  0  0  0  0  0  0  0  0  0  0
   -0.3687    3.9515    0.7823 N   0  0  0  0  0  0  0  0  0  0  0  0
    0.3182    4.9526    0.4064 N   0  3  0  0  0  0  0  0  0  0  0  0
    1.0050    5.9537    0.0305 N   0  5  0  0  0  0  0  0  0  0  0  0
   -1.6628    1.1228    1.4988 P   0  0  0  0  0  4  0  0  0  0  0  0
   -1.2561   -0.4844    2.2737 C   0  0  0  0  0  0  0  0  0  0  0  0
   -2.2522    2.2869    2.7819 C   0  0  0  0  0  0  0  0  0  0  0  0
   -2.9742    0.8813    0.2455 C   0  0  0  0  0  0  0  0  0  0  0  0
    1.4668    2.0507    2.5733 P   0  0  0  0  0  4  0  0  0  0  0  0
    0.8220    0.6964    3.6215 C   0  0  0  0  0  0  0  0  0  0  0  0
    3.2620    1.8144    2.3075 C   0  0  0  0  0  0  0  0  0  0  0  0
    1.1793    3.6554    3.4046 C   0  0  0  0  0  0  0  0  0  0  0  0
    0.6713   -0.2726   -0.8806 H   0  0  0  0  0  0  0  0  0  0  0  0
    0.6713   -0.5877    0.8381 H   0  0  0  0  0  0  0  0  0  0  0  0
    2.0980    0.0660    0.0697 H   0  0  0  0  0  0  0  0  0  0  0  0
    2.3970    2.1445   -1.2522 H   0  0  0  0  0  0  0  0  0  0  0  0
    1.8145    3.7648   -0.9550 H   0  0  0  0  0  0  0  0  0  0  0  0
    2.8191    2.9663    0.2309 H   0  0  0  0  0  0  0  0  0  0  0  0
   -1.7277    2.1537   -1.2839 H   0  0  0  0  0  0  0  0  0  0  0  0
   -0.3010    2.8074   -2.0522 H   0  0  0  0  0  0  0  0  0  0  0  0
   -0.5099    1.0773   -1.9254 H   0  0  0  0  0  0  0  0  0  0  0  0
   -0.4893   -0.3432    3.0065 H   0  0  0  0  0  0  0  0  0  0  0  0
   -2.1297   -0.8847    2.7442 H   0  0  0  0  0  0  0  0  0  0  0  0
   -0.9114   -1.1650    1.5235 H   0  0  0  0  0  0  0  0  0  0  0  0
   -2.4900    3.2266    2.3289 H   0  0  0  0  0  0  0  0  0  0  0  0
   -3.1259    1.8865    3.2524 H   0  0  0  0  0  0  0  0  0  0  0  0
   -1.4855    2.4281    3.5147 H   0  0  0  0  0  0  0  0  0  0  0  0
   -3.2119    1.8210   -0.2076 H   0  0  0  0  0  0  0  0  0  0  0  0
   -2.6295    0.2006   -0.5047 H   0  0  0  0  0  0  0  0  0  0  0  0
   -3.8478    0.4809    0.7160 H   0  0  0  0  0  0  0  0  0  0  0  0
    0.9901   -0.2419    3.1354 H   0  0  0  0  0  0  0  0  0  0  0  0
    1.3264    0.7047    4.5651 H   0  0  0  0  0  0  0  0  0  0  0  0
   -0.2276    0.8345    3.7769 H   0  0  0  0  0  0  0  0  0  0  0  0
    3.6390    2.6063    1.6945 H   0  0  0  0  0  0  0  0  0  0  0  0
    3.7664    1.8227    3.2511 H   0  0  0  0  0  0  0  0  0  0  0  0
    3.4301    0.8762    1.8214 H   0  0  0  0  0  0  0  0  0  0  0  0
    1.5563    4.4473    2.7917 H   0  0  0  0  0  0  0  0  0  0  0  0
    0.1297    3.7935    3.5600 H   0  0  0  0  0  0  0  0  0  0  0  0
    1.6837    3.6637    4.3482 H   0  0  0  0  0  0  0  0  0  0  0  0
  1  2  1  0  0  0  0
  1 16  1  0  0  0  0
  1 17  1  0  0  0  0
  1 18  1  0  0  0  0
  2  3  1  0  0  0  0
  2  4  1  0  0  0  0
  2  5  1  0  0  0  0
  2  8  1  0  0  0  0
  2 12  1  0  0  0  0
  3 19  1  0  0  0  0
  3 20  1  0  0  0  0
  3 21  1  0  0  0  0
  4 22  1  0  0  0  0
  4 23  1  0  0  0  0
  4 24  1  0  0  0  0
  5  6  2  0  0  0  0
  6  7  2  0  0  0  0
  8  9  1  0  0  0  0
  8 10  1  0  0  0  0
  8 11  1  0  0  0  0
  9 25  1  0  0  0  0
  9 26  1  0  0  0  0
  9 27  1  0  0  0  0
 10 28  1  0  0  0  0
 10 29  1  0  0  0  0
 10 30  1  0  0  0  0
 11 31  1  0  0  0  0
 11 32  1  0  0  0  0
 11 33  1  0  0  0  0
 12 13  1  0  0  0  0
 12 14  1  0  0  0  0
 12 15  1  0  0  0  0
 13 34  1  0  0  0  0
 13 35  1  0  0  0  0
 13 36  1  0  0  0  0
 14 37  1  0  0  0  0
 14 38  1  0  0  0  0
 14 39  1  0  0  0  0
 15 40  1  0  0  0  0
 15 41  1  0  0  0  0
 15 42  1  0  0  0  0
M  CHG  2   6   1   7  -1
M  END
$$$$
