
 OpenBabel09252516483D

 87103  0  0  0  0  0  0  0  0999 V2000
    0.8180    1.0620   -0.2230 H   0  0  0  0  0  0  0  0  0  0  0  0
    1.8030   -0.0000    0.2970 Ru  0  0  0  0  0  0  0  0  0  0  0  0
    0.8190   -1.0620   -0.2240 Cl  0  0  0  0  0  2  0  0  0  0  0  0
   -0.2760   -0.0000   -0.0710 Ru  0  0  0  0  0  0  0  0  0  0  0  0
    3.2242    2.0521   -0.1151 P   0  3  0  0  0  0  0  0  0  0  0  0
    4.9865    1.5666   -0.2003 C   0  0  0  0  0  0  0  0  0  0  0  0
    5.8861    2.1062    0.7042 C   0  0  0  0  0  0  0  0  0  0  0  0
    7.2421    1.8908    0.3621 C   0  0  0  0  0  0  0  0  0  0  0  0
    7.6619    0.9819   -0.4991 C   0  0  0  0  0  0  0  0  0  0  0  0
    6.7131    0.4367   -1.3188 C   0  0  0  0  0  0  0  0  0  0  0  0
    5.3784    0.7027   -1.1295 C   0  0  0  0  0  0  0  0  0  0  0  0
    2.7287    2.8299   -1.6958 C   0  0  0  0  0  0  0  0  0  0  0  0
    3.6658    2.8067   -2.7155 C   0  0  0  0  0  0  0  0  0  0  0  0
    3.2883    3.5510   -3.8581 C   0  0  0  0  0  0  0  0  0  0  0  0
    2.0541    3.9366   -4.1266 C   0  0  0  0  0  0  0  0  0  0  0  0
    1.1587    3.8715   -3.0954 C   0  0  0  0  0  0  0  0  0  0  0  0
    1.4955    3.2765   -1.9036 C   0  0  0  0  0  0  0  0  0  0  0  0
   -1.4770   -0.0000    0.8690 C   0  0  0  0  0  0  0  0  0  0  0  0
   -2.0468    0.0000    2.2782 C   0  0  0  0  0  0  0  0  0  0  0  0
   -1.6880    0.0000   -0.6480 C   0  0  0  0  0  0  0  0  0  0  0  0
   -2.6206    0.0000   -1.8483 C   0  0  0  0  0  0  0  0  0  0  0  0
    1.8655    2.9670   -1.3537 C   0  0  0  0  0  0  0  0  0  0  0  0
    2.0395    3.7974   -0.0925 C   0  0  0  0  0  0  0  0  0  0  0  0
    0.9014    1.7919   -1.3628 C   0  0  0  0  0  0  0  0  0  0  0  0
    0.7273    0.9615   -2.6240 C   0  0  0  0  0  0  0  0  0  0  0  0
    0.1942    1.4835   -0.2423 C   0  0  0  0  0  0  0  0  0  0  0  0
    0.3683    2.3139    1.0188 C   0  0  0  0  0  0  0  0  0  0  0  0
   -0.7699    0.3084   -0.2515 C   0  0  0  0  0  0  0  0  0  0  0  0
   -0.9439   -0.5220   -1.5126 C   0  0  0  0  0  0  0  0  0  0  0  0
    3.1685    0.1164    2.0435 C   0  0  0  0  0  0  0  0  0  0  0  0
    4.3812    1.0230    1.9091 C   0  0  0  0  0  0  0  0  0  0  0  0
    4.6041   -0.0231    1.8088 C   0  0  0  0  0  0  0  0  0  0  0  0
    5.1115   -0.2385    0.3923 C   0  0  0  0  0  0  0  0  0  0  0  0
    5.4624    0.0342    2.7986 C   0  0  0  0  0  0  0  0  0  0  0  0
    6.9561   -0.1107    2.5571 C   0  0  0  0  0  0  0  0  0  0  0  0
    4.8593    0.2694    4.3154 C   0  0  0  0  0  0  0  0  0  0  0  0
    5.7709    0.3514    5.5290 C   0  0  0  0  0  0  0  0  0  0  0  0
    3.3089    0.4041    4.4482 C   0  0  0  0  0  0  0  0  0  0  0  0
    2.6597    0.6209    5.8054 C   0  0  0  0  0  0  0  0  0  0  0  0
    2.5835    0.3258    3.3639 C   0  0  0  0  0  0  0  0  0  0  0  0
    1.0739    0.4578    3.4826 C   0  0  0  0  0  0  0  0  0  0  0  0
    5.5831    2.6377    1.5821 H   0  0  0  0  0  0  0  0  0  0  0  0
    7.9785    2.5072    0.8339 H   0  0  0  0  0  0  0  0  0  0  0  0
    8.6894    0.6881   -0.5526 H   0  0  0  0  0  0  0  0  0  0  0  0
    7.0142   -0.2065   -2.1192 H   0  0  0  0  0  0  0  0  0  0  0  0
    4.6482    0.2092   -1.7362 H   0  0  0  0  0  0  0  0  0  0  0  0
    4.5912    2.2742   -2.6455 H   0  0  0  0  0  0  0  0  0  0  0  0
    4.0562    3.8202   -4.5529 H   0  0  0  0  0  0  0  0  0  0  0  0
    1.7701    4.2813   -5.0989 H   0  0  0  0  0  0  0  0  0  0  0  0
    0.1816    4.2900   -3.2182 H   0  0  0  0  0  0  0  0  0  0  0  0
    0.7575    3.1720   -1.1359 H   0  0  0  0  0  0  0  0  0  0  0  0
   -2.6481    0.8736    2.4197 H   0  0  0  0  0  0  0  0  0  0  0  0
   -2.6481   -0.8737    2.4197 H   0  0  0  0  0  0  0  0  0  0  0  0
   -1.2453    0.0000    2.9870 H   0  0  0  0  0  0  0  0  0  0  0  0
   -3.2377   -0.8736   -1.8205 H   0  0  0  0  0  0  0  0  0  0  0  0
   -3.2377    0.8737   -1.8205 H   0  0  0  0  0  0  0  0  0  0  0  0
   -2.0428    0.0000   -2.7489 H   0  0  0  0  0  0  0  0  0  0  0  0
    1.1006    4.2314    0.1812 H   0  0  0  0  0  0  0  0  0  0  0  0
    2.3880    3.1709    0.7018 H   0  0  0  0  0  0  0  0  0  0  0  0
    2.7526    4.5746   -0.2728 H   0  0  0  0  0  0  0  0  0  0  0  0
    0.9941   -0.0547   -2.4215 H   0  0  0  0  0  0  0  0  0  0  0  0
   -0.2933    1.0057   -2.9421 H   0  0  0  0  0  0  0  0  0  0  0  0
    1.3587    1.3489   -3.3961 H   0  0  0  0  0  0  0  0  0  0  0  0
   -0.5707    2.7479    1.2926 H   0  0  0  0  0  0  0  0  0  0  0  0
    0.7168    1.6874    1.8131 H   0  0  0  0  0  0  0  0  0  0  0  0
    1.0813    3.0911    0.8385 H   0  0  0  0  0  0  0  0  0  0  0  0
   -0.6771   -1.5382   -1.3102 H   0  0  0  0  0  0  0  0  0  0  0  0
   -1.9646   -0.4778   -1.8308 H   0  0  0  0  0  0  0  0  0  0  0  0
   -0.3126   -0.1346   -2.2848 H   0  0  0  0  0  0  0  0  0  0  0  0
    4.9862    0.6906    1.0916 H   0  0  0  0  0  0  0  0  0  0  0  0
    4.0578    2.0268    1.7284 H   0  0  0  0  0  0  0  0  0  0  0  0
    4.9532    0.9898    2.8128 H   0  0  0  0  0  0  0  0  0  0  0  0
    5.7709    0.5604    0.1243 H   0  0  0  0  0  0  0  0  0  0  0  0
    5.6381   -1.1685    0.3395 H   0  0  0  0  0  0  0  0  0  0  0  0
    4.2827   -0.2590   -0.2842 H   0  0  0  0  0  0  0  0  0  0  0  0
    7.1550   -1.0641    2.1140 H   0  0  0  0  0  0  0  0  0  0  0  0
    7.2878    0.6648    1.8987 H   0  0  0  0  0  0  0  0  0  0  0  0
    7.4770   -0.0347    3.4886 H   0  0  0  0  0  0  0  0  0  0  0  0
    6.3208   -0.5615    5.6243 H   0  0  0  0  0  0  0  0  0  0  0  0
    6.4525    1.1674    5.4086 H   0  0  0  0  0  0  0  0  0  0  0  0
    5.1811    0.5060    6.4082 H   0  0  0  0  0  0  0  0  0  0  0  0
    2.8959   -0.2006    6.4491 H   0  0  0  0  0  0  0  0  0  0  0  0
    3.0279    1.5286    6.2360 H   0  0  0  0  0  0  0  0  0  0  0  0
    1.5984    0.6872    5.6866 H   0  0  0  0  0  0  0  0  0  0  0  0
    0.6968   -0.3171    4.1168 H   0  0  0  0  0  0  0  0  0  0  0  0
    0.8312    1.4118    3.9022 H   0  0  0  0  0  0  0  0  0  0  0  0
    0.6309    0.3718    2.5124 H   0  0  0  0  0  0  0  0  0  0  0  0
  1  2  1  0  0  0  0
  1  4  1  0  0  0  0
  2  3  1  0  0  0  0
  2  4  1  0  0  0  0
  2  5  1  0  0  0  0
  2 30  1  0  0  0  0
  2 32  1  0  0  0  0
  2 34  1  0  0  0  0
  2 36  1  0  0  0  0
  2 38  1  0  0  0  0
  2 40  1  0  0  0  0
  3  4  1  0  0  0  0
  4  5  1  0  0  0  0
  4 18  1  0  0  0  0
  4 20  1  0  0  0  0
  4 22  1  0  0  0  0
  4 24  1  0  0  0  0
  4 26  1  0  0  0  0
  4 28  1  0  0  0  0
  5  6  1  0  0  0  0
  5 12  1  0  0  0  0
  6  7  1  0  0  0  0
  6 11  2  0  0  0  0
  7  8  2  0  0  0  0
  7 42  1  0  0  0  0
  8  9  1  0  0  0  0
  8 43  1  0  0  0  0
  9 10  2  0  0  0  0
  9 44  1  0  0  0  0
 10 11  1  0  0  0  0
 10 45  1  0  0  0  0
 11 46  1  0  0  0  0
 12 13  1  0  0  0  0
 12 17  2  0  0  0  0
 13 14  2  0  0  0  0
 13 47  1  0  0  0  0
 14 15  1  0  0  0  0
 14 48  1  0  0  0  0
 15 16  2  0  0  0  0
 15 49  1  0  0  0  0
 16 17  1  0  0  0  0
 16 50  1  0  0  0  0
 17 51  1  0  0  0  0
 18 19  1  0  0  0  0
 18 20  1  0  0  0  0
 18 28  2  0  0  0  0
 19 52  1  0  0  0  0
 19 53  1  0  0  0  0
 19 54  1  0  0  0  0
 20 21  1  0  0  0  0
 20 22  2  0  0  0  0
 21 55  1  0  0  0  0
 21 56  1  0  0  0  0
 21 57  1  0  0  0  0
 22 23  1  0  0  0  0
 22 24  1  0  0  0  0
 23 58  1  0  0  0  0
 23 59  1  0  0  0  0
 23 60  1  0  0  0  0
 24 25  1  0  0  0  0
 24 26  2  0  0  0  0
 25 61  1  0  0  0  0
 25 62  1  0  0  0  0
 25 63  1  0  0  0  0
 26 27  1  0  0  0  0
 26 28  1  0  0  0  0
 27 64  1  0  0  0  0
 27 65  1  0  0  0  0
 27 66  1  0  0  0  0
 28 29  1  0  0  0  0
 29 67  1  0  0  0  0
 29 68  1  0  0  0  0
 29 69  1  0  0  0  0
 30 31  1  0  0  0  0
 30 32  1  0  0  0  0
 30 40  2  0  0  0  0
 31 70  1  0  0  0  0
 31 71  1  0  0  0  0
 31 72  1  0  0  0  0
 32 33  1  0  0  0  0
 32 34  2  0  0  0  0
 33 73  1  0  0  0  0
 33 74  1  0  0  0  0
 33 75  1  0  0  0  0
 34 35  1  0  0  0  0
 34 36  1  0  0  0  0
 35 76  1  0  0  0  0
 35 77  1  0  0  0  0
 35 78  1  0  0  0  0
 36 37  1  0  0  0  0
 36 38  2  0  0  0  0
 37 79  1  0  0  0  0
 37 80  1  0  0  0  0
 37 81  1  0  0  0  0
 38 39  1  0  0  0  0
 38 40  1  0  0  0  0
 39 82  1  0  0  0  0
 39 83  1  0  0  0  0
 39 84  1  0  0  0  0
 40 41  1  0  0  0  0
 41 85  1  0  0  0  0
 41 86  1  0  0  0  0
 41 87  1  0  0  0  0
M  CHG  1   5   1
M  END
$$$$
