
     RDKit          3D

  0  0  0  0  0  0  0  0  0  0999 V3000
M  V30 BEGIN CTAB
M  V30 COUNTS 47 52 0 0 0
M  V30 BEGIN ATOM
M  V30 1 C 1.566364 -0.964159 0.548055 0
M  V30 2 N 0.482803 -1.661855 0.581944 0
M  V30 3 C -0.380266 -2.693466 1.011674 0
M  V30 4 C -1.283898 -3.215607 -0.124306 0
M  V30 5 C -2.414223 -2.303511 -0.452358 0
M  V30 6 N -2.002986 -1.047411 -0.999041 0
M  V30 7 C -2.071913 0.166993 -1.422522 0
M  V30 8 C -1.651374 1.435879 -1.996001 0
M  V30 9 C -3.177582 0.515906 -0.424143 0
M  V30 10 C -4.384600 1.220964 -0.647394 0
M  V30 11 C -5.276879 1.465851 0.412073 0
M  V30 12 C -4.929976 0.996938 1.660700 0
M  V30 13 C -3.779674 0.305491 1.973975 0
M  V30 14 C -2.863664 0.044980 0.936087 0
M  V30 15 O -1.715947 -0.645375 1.333833 0
M  V30 16 Cu -0.513734 -0.767841 -0.491210 0 CFG=2 VAL=4
M  V30 17 O 0.039501 0.615854 -0.637292 0
M  V30 18 C 1.321326 1.038972 -0.775750 0
M  V30 19 C 1.849225 2.155547 -1.452843 0
M  V30 20 C 3.218086 2.331836 -1.419884 0
M  V30 21 C 4.007209 1.432461 -0.742435 0
M  V30 22 C 5.359924 1.635628 -0.735033 0
M  V30 23 C 6.266421 0.808979 -0.098827 0
M  V30 24 C 5.779245 -0.287503 0.569261 0
M  V30 25 C 4.420076 -0.514305 0.576762 0
M  V30 26 C 3.545300 0.328149 -0.065980 0
M  V30 27 C 2.180289 0.179016 -0.116057 0
M  V30 28 H 2.188627 -1.355176 1.286236 0
M  V30 29 H -1.082802 -2.308722 1.774170 0
M  V30 30 H 0.018573 -3.609144 1.479591 0
M  V30 31 H -1.698832 -4.157285 0.180665 0
M  V30 32 H -0.619303 -3.271890 -1.017409 0
M  V30 33 H -2.946201 -2.830730 -1.295244 0
M  V30 34 H -3.179467 -2.256510 0.343701 0
M  V30 35 H -0.957214 1.359742 -2.869816 0
M  V30 36 H -1.300427 2.245644 -1.401154 0
M  V30 37 H -2.587479 1.822702 -2.507759 0
M  V30 38 H -4.441859 1.525452 -1.698271 0
M  V30 39 H -6.143327 2.004134 0.105982 0
M  V30 40 H -5.633301 1.199281 2.446338 0
M  V30 41 H -3.503427 -0.061509 2.943467 0
M  V30 42 H 1.154704 2.810096 -1.955732 0
M  V30 43 H 3.536984 3.194032 -1.952720 0
M  V30 44 H 5.780883 2.479734 -1.245051 0
M  V30 45 H 7.325392 0.972342 -0.095741 0
M  V30 46 H 6.435061 -0.978048 1.089993 0
M  V30 47 H 4.064361 -1.362557 1.089186 0
M  V30 END ATOM
M  V30 BEGIN BOND
M  V30 1 2 1 2
M  V30 2 1 2 3
M  V30 3 1 3 4
M  V30 4 1 4 5
M  V30 5 1 5 6
M  V30 6 2 6 7
M  V30 7 1 7 8
M  V30 8 1 7 9
M  V30 9 2 9 10
M  V30 10 1 10 11
M  V30 11 2 11 12
M  V30 12 1 12 13
M  V30 13 2 13 14
M  V30 14 1 14 15
M  V30 15 1 15 16
M  V30 16 1 16 17
M  V30 17 1 17 18
M  V30 18 2 18 19
M  V30 19 1 19 20
M  V30 20 2 20 21
M  V30 21 1 21 22
M  V30 22 2 22 23
M  V30 23 1 23 24
M  V30 24 2 24 25
M  V30 25 1 25 26
M  V30 26 2 26 27
M  V30 27 1 27 1
M  V30 28 9 2 16
M  V30 29 1 27 18
M  V30 30 9 6 16
M  V30 31 1 26 21
M  V30 32 1 14 9
M  V30 33 1 1 28
M  V30 34 1 3 29
M  V30 35 1 3 30
M  V30 36 1 4 31
M  V30 37 1 4 32
M  V30 38 1 5 33
M  V30 39 1 5 34
M  V30 40 1 8 35
M  V30 41 1 8 36
M  V30 42 1 8 37
M  V30 43 1 10 38
M  V30 44 1 11 39
M  V30 45 1 12 40
M  V30 46 1 13 41
M  V30 47 1 19 42
M  V30 48 1 20 43
M  V30 49 1 22 44
M  V30 50 1 23 45
M  V30 51 1 24 46
M  V30 52 1 25 47
M  V30 END BOND
M  V30 END CTAB
M  END
