
 OpenBabel09252514083D

 47 52  0  0  0  0  0  0  0  0999 V2000
    0.9368    0.0332    0.0701 H   0  0  0  0  0  0  0  0  0  0  0  0
    2.0068    0.0332    0.0701 C   0  0  0  0  0  0  0  0  0  0  0  0
    2.6647    1.1349    0.3604 N   0  0  0  0  0  4  0  0  0  0  0  0
    2.9360    2.5743    0.8016 C   0  0  0  0  0  0  0  0  0  0  0  0
    3.3443    2.5733    1.7907 H   0  0  0  0  0  0  0  0  0  0  0  0
    3.6329    3.0283    0.1285 H   0  0  0  0  0  0  0  0  0  0  0  0
    1.6271    3.3660    0.7911 C   0  0  0  0  0  0  0  0  0  0  0  0
    0.8874    2.8257    0.2381 H   0  0  0  0  0  0  0  0  0  0  0  0
    1.2877    3.5077    1.7959 H   0  0  0  0  0  0  0  0  0  0  0  0
    1.8615    4.7286    0.1345 C   0  0  0  0  0  0  0  0  0  0  0  0
    1.1578    5.4363    0.5203 H   0  0  0  0  0  0  0  0  0  0  0  0
    2.8557    5.0614    0.3485 H   0  0  0  0  0  0  0  0  0  0  0  0
    1.6833    4.6048   -1.3569 N   0  0  0  0  0  4  0  0  0  0  0  0
    2.6762    4.8916   -2.1622 C   0  0  0  0  0  0  0  0  0  0  0  0
    4.0088    5.3495   -1.5921 C   0  0  0  0  0  0  0  0  0  0  0  0
    4.7772    4.6665   -1.8888 H   0  0  0  0  0  0  0  0  0  0  0  0
    4.2381    6.3269   -1.9621 H   0  0  0  0  0  0  0  0  0  0  0  0
    3.9492    5.3773   -0.5241 H   0  0  0  0  0  0  0  0  0  0  0  0
    2.4976    4.7679   -3.6527 C   0  0  0  0  0  3  0  0  0  0  0  0
    3.7195    4.1196   -4.2532 C   0  0  0  0  0  3  0  0  0  0  0  0
    4.5244    4.2830   -3.5674 H   0  0  0  0  0  0  0  0  0  0  0  0
    3.7114    2.6469   -4.5715 C   0  0  0  0  0  3  0  0  0  0  0  0
    4.1148    2.4911   -5.5502 H   0  0  0  0  0  0  0  0  0  0  0  0
    4.5204    1.9371   -3.5952 C   0  0  0  0  0  3  0  0  0  0  0  0
    4.6350    2.5763   -2.7448 H   0  0  0  0  0  0  0  0  0  0  0  0
    4.0503    0.7592   -3.1562 C   0  0  0  0  0  3  0  0  0  0  0  0
    3.0905    0.9513   -2.7239 H   0  0  0  0  0  0  0  0  0  0  0  0
    4.8334   -0.0333   -2.1418 C   0  0  0  0  0  3  0  0  0  0  0  0
    3.8911   -0.5262   -1.0417 O   0  0  0  0  0  0  0  0  0  0  0  0
    3.9936    0.4019    0.1673 Cu  0  0  0  0  0  0  0  0  0  0  0  0
    5.4953   -0.3590    1.2095 O   0  0  0  0  0  0  0  0  0  0  0  0
    5.4494   -1.7765    1.1400 C   0  0  0  0  0  3  0  0  0  0  0  0
    5.5701   -2.1464   -0.3391 C   0  0  0  0  0  3  0  0  0  0  0  0
    5.0016   -3.0319   -0.5329 H   0  0  0  0  0  0  0  0  0  0  0  0
    5.0346   -0.9989   -1.1973 C   0  0  0  0  0  3  0  0  0  0  0  0
    5.1188   -1.2580   -2.2320 H   0  0  0  0  0  0  0  0  0  0  0  0
    3.5658   -0.7467   -0.8527 C   0  0  0  0  0  3  0  0  0  0  0  0
    3.0303    0.4008   -1.7108 C   0  0  0  0  0  3  0  0  0  0  0  0
    3.1145    0.1416   -2.7456 H   0  0  0  0  0  0  0  0  0  0  0  0
    1.5615    0.6529   -1.3662 C   0  0  0  0  0  3  0  0  0  0  0  0
    0.9928   -0.2325   -1.5598 H   0  0  0  0  0  0  0  0  0  0  0  0
    1.4400    1.0233    0.1127 C   0  0  0  0  0  3  0  0  0  0  0  0
    0.4122    1.1988    0.3533 H   0  0  0  0  0  0  0  0  0  0  0  0
    1.9762   -0.1247    0.9710 C   0  0  0  0  0  3  0  0  0  0  0  0
    1.4075   -1.0102    0.7777 H   0  0  0  0  0  0  0  0  0  0  0  0
    3.4451   -0.3769    0.6264 C   0  0  0  0  0  3  0  0  0  0  0  0
    3.9805   -1.5244    1.4846 C   0  0  0  0  0  3  0  0  0  0  0  0
  1  2  1  0  0  0  0
  2  3  2  0  0  0  0
  2 47  1  0  0  0  0
  3  4  1  0  0  0  0
  3 30  1  0  0  0  0
  4  5  1  0  0  0  0
  4  6  1  0  0  0  0
  4  7  1  0  0  0  0
  7  8  1  0  0  0  0
  7  9  1  0  0  0  0
  7 10  1  0  0  0  0
 10 11  1  0  0  0  0
 10 12  1  0  0  0  0
 10 13  1  0  0  0  0
 13 14  2  0  0  0  0
 13 30  1  0  0  0  0
 14 15  1  0  0  0  0
 14 19  1  0  0  0  0
 15 16  1  0  0  0  0
 15 17  1  0  0  0  0
 15 18  1  0  0  0  0
 19 20  1  0  0  0  0
 19 28  1  0  0  0  0
 20 21  1  0  0  0  0
 20 22  1  0  0  0  0
 22 23  1  0  0  0  0
 22 24  1  0  0  0  0
 24 25  1  0  0  0  0
 24 26  1  0  0  0  0
 26 27  1  0  0  0  0
 26 28  1  0  0  0  0
 28 29  1  0  0  0  0
 29 30  1  0  0  0  0
 30 31  1  0  0  0  0
 31 32  1  0  0  0  0
 32 33  1  0  0  0  0
 32 47  1  0  0  0  0
 33 34  1  0  0  0  0
 33 35  1  0  0  0  0
 35 36  1  0  0  0  0
 35 37  1  0  0  0  0
 37 38  1  0  0  0  0
 37 46  1  0  0  0  0
 38 39  1  0  0  0  0
 38 40  1  0  0  0  0
 40 41  1  0  0  0  0
 40 42  1  0  0  0  0
 42 43  1  0  0  0  0
 42 44  1  0  0  0  0
 44 45  1  0  0  0  0
 44 46  1  0  0  0  0
 46 47  1  0  0  0  0
M  END
$$$$
