
  --CCDC--092525    3D                              

 53 64  0  0  0  0  0  0  0  0999 V2000
    0.2391   -0.7196    0.3095 C      0
    1.6058   -0.4456   -0.1194 C      0
    2.6537   -0.1701   -0.4830 N      0
    4.5665    0.3596   -1.2922 Ru     3
    3.5748   -1.8385   -2.4092 Br     0
    5.6735   -3.4569   -2.4756 Ru     0
    4.0816   -4.1386   -1.2178 C      0
    3.2336   -4.5017   -0.5477 O      0
    4.0867   -4.3771   -3.5874 N      0
    3.2409   -4.8684   -4.1824 C      0
    2.1374   -5.4924   -4.9060 C      0
    7.1656   -4.7152   -3.0400 C      0
    7.1688   -4.2817   -1.4247 C      0
    7.0996   -2.6184   -1.3330 C      0
    6.7024   -1.7652   -0.1316 C      0
    5.8231   -2.4629    0.9071 C      0
    8.0321   -1.5571    0.5943 C      0
    6.2798   -0.3406   -0.4763 C      0
    5.4760    0.7697    0.4671 C      0
    5.1496    2.1047   -0.4739 C      0
    5.7804    1.8150   -1.9883 C      0
    6.4549    0.2927   -1.9999 C      0
    6.7719   -0.5627   -3.2172 C      0
    5.8867   -0.3017   -4.4375 C      0
    8.1381   -0.0579   -3.6804 C      0
    7.0354   -2.0284   -2.8903 C      0
    7.0321   -3.3147   -3.9447 C      0
    2.9422    0.7789   -2.6205 C      0
    2.0725    1.0055   -3.3211 O      0
   -0.4386    0.0537   -0.0508 H      0
    0.1648   -0.7486    1.3952 H      0
   -0.1084   -1.6750   -0.0797 H      0
    2.1396   -6.5722   -4.7717 H      0
    2.2009   -5.2836   -5.9719 H      0
    1.1796   -5.1158   -4.5510 H      0
    8.2618   -4.6148   -3.0587 H      0
    6.6093   -4.8908   -0.6964 H      0
    4.8132   -2.0666    0.9151 H      0
    5.7739   -3.5319    0.7107 H      0
    6.2373   -2.3341    1.9047 H      0
    8.7676   -1.1389   -0.0914 H      0
    8.4289   -2.4930    0.9801 H      0
    7.9231   -0.8637    1.4251 H      0
    4.7268    0.4276    1.1986 H      0
    4.1895    2.6336   -0.3652 H      0
    5.2282    2.1670   -2.8731 H      0
    4.8774   -0.0096   -4.1724 H      0
    5.8243   -1.1935   -5.0570 H      0
    6.3100    0.4922   -5.0503 H      0
    8.0992    0.9915   -3.9650 H      0
    8.4953   -0.6309   -4.5330 H      0
    8.8681   -0.1632   -2.8796 H      0
    6.3850   -3.2938   -4.8358 H      0
  1  2  1
  2  3  3
  3  4  1
  4  5  1
  5  6  1
  6  7  1
  7  8  3
  6  9  1
  9 10  3
 10 11  1
  6 12  1
 12 13  1
  6 13  1
 13 14  1
  6 14  1
 14 15  1
 15 16  1
 15 17  1
 15 18  1
  4 18  1
 18 19  1
  4 19  1
 19 20  1
  4 20  1
 20 21  1
  4 21  1
 21 22  1
  4 22  1
 18 22  1
 22 23  1
 23 24  1
 23 25  1
 23 26  1
  6 26  1
 14 26  1
 26 27  1
  6 27  1
 12 27  1
  4 28  1
 28 29  3
  1 30  1
  1 31  1
  1 32  1
 11 33  1
 11 34  1
 11 35  1
 12 36  1
 13 37  1
 16 38  1
 16 39  1
 16 40  1
 17 41  1
 17 42  1
 17 43  1
 19 44  1
 20 45  1
 21 46  1
 24 47  1
 24 48  1
 24 49  1
 25 50  1
 25 51  1
 25 52  1
 27 53  1
M  CHG  1   4   1
M  END
$$$$
