
  --CCDC--092525    3D                              

 64 65  0  0  0  0  0  0  0  0999 V2000
   -0.5160   -0.4021    0.7945 H      0
    0.2293    0.3814    0.9231 C      0
    0.8704    0.1372    1.7689 H      0
   -0.4768    1.6652    1.2172 C      0
   -1.7190    1.8784    0.8336 N      0
   -2.0628    3.1302    1.1720 N      0
   -3.2871    3.7198    1.0031 O      0
   -2.6532    4.9861    0.6662 C      0
   -3.3271    5.7351    0.2576 H      0
   -1.8299    4.9190   -0.0234 H      0
   -2.1641    5.5436    1.4636 H      0
   -4.6719    4.0045    0.7262 C      0
   -4.8376    4.7632   -0.0267 H      0
   -5.2473    4.4201    1.5460 H      0
   -5.2559    3.1506    0.4314 H      0
   -3.4553    4.4839    2.2253 C      0
   -4.1792    4.1121    2.9250 H      0
   -2.5845    4.5634    2.8740 H      0
   -3.8234    5.5006    2.0668 H      0
   -3.7833    2.3417    1.8489 P      0
   -4.4551    0.9636    0.8689 C      0
   -4.6472    0.1301    1.5413 H      0
   -3.7669    0.5885    0.1178 H      0
   -5.4129    1.1983    0.4187 H      0
   -2.9090    2.2201    3.4513 C      0
   -3.2864    1.3529    3.9891 H      0
   -3.0505    3.0698    4.1157 H      0
   -1.8409    2.0644    3.3278 H      0
   -5.4250    2.2559    2.6525 C      0
   -5.5731    1.2569    3.0571 H      0
   -6.2288    2.4301    1.9405 H      0
   -5.5573    2.9474    3.4809 H      0
   -3.1828    3.3612   -0.6494 P      0
   -1.5012    3.1100   -1.3213 C      0
   -1.3125    2.0582   -1.5283 H      0
   -0.6976    3.4764   -0.6861 H      0
   -1.4169    3.6252   -2.2758 H      0
   -4.6954    2.9725   -1.5970 C      0
   -4.4139    2.7138   -2.6155 H      0
   -5.3715    3.8220   -1.6758 H      0
   -5.2552    2.1276   -1.2219 H      0
   -3.2386    4.7288   -1.8607 C      0
   -4.0964    5.3771   -1.6985 H      0
   -3.3269    4.3235   -2.8664 H      0
   -2.3439    5.3477   -1.8580 H      0
   -1.0122    3.7104    1.7800 N      0
   -0.0240    2.8436    1.8254 C      0
    1.3293    3.2294    2.3638 C      0
    1.6168    2.4843    3.1041 H      0
    1.2301    4.2007    2.8461 H      0
    2.4548    3.3300    1.3463 C      0
    3.3372    3.6834    1.8776 H      0
    2.1544    4.0717    0.6077 H      0
    2.8578    2.0888    0.5915 C      0
    2.9028    1.2597    1.2962 H      0
    3.8450    2.2548    0.1628 H      0
    1.8945    1.7034   -0.5476 C      0
    2.4848    1.5702   -1.4530 H      0
    1.1964    2.5275   -0.6874 H      0
    1.0869    0.4438   -0.3316 C      0
    0.4249    0.3267   -1.1884 H      0
    1.7844   -0.3917   -0.2950 H      0
   -2.9165    1.2474    1.8387 H      0
   -3.1293    1.9931   -0.9120 H      0
  1  2  1
  2  3  1
  2  4  1
  4  5  2
  5  6  1
  6  7  1
  7  8  1
  8  9  1
  8 10  1
  8 11  1
  7 12  1
 12 13  1
 12 14  1
 12 15  1
  7 16  1
 16 17  1
 16 18  1
 16 19  1
  7 20  1
 20 21  1
 21 22  1
 21 23  1
 21 24  1
 20 25  1
 25 26  1
 25 27  1
 25 28  1
 20 29  1
 29 30  1
 29 31  1
 29 32  1
  7 33  1
 33 34  1
 34 35  1
 34 36  1
 34 37  1
 33 38  1
 38 39  1
 38 40  1
 38 41  1
 33 42  1
 42 43  1
 42 44  1
 42 45  1
  6 46  1
 46 47  2
  4 47  1
 47 48  1
 48 49  1
 48 50  1
 48 51  1
 51 52  1
 51 53  1
 51 54  1
 54 55  1
 54 56  1
 54 57  1
 57 58  1
 57 59  1
 57 60  1
  2 60  1
 60 61  1
 60 62  1
 20 63  1
 33 64  1
M  END
$$$$
