
     RDKit          3D

  0  0  0  0  0  0  0  0  0  0999 V3000
M  V30 BEGIN CTAB
M  V30 COUNTS 114 121 0 0 0
M  V30 BEGIN ATOM
M  V30 1 C -1.775314 -3.148513 2.134416 0
M  V30 2 O -0.667771 -3.176599 1.346562 0
M  V30 3 C 0.099046 -4.126325 2.031984 0
M  V30 4 C 1.031249 -4.270142 0.931465 0
M  V30 5 O 1.228251 -2.984303 0.557607 0
M  V30 6 C 2.386641 -3.167448 -0.198185 0
M  V30 7 Eu -0.075805 -1.642552 0.181705 0 VAL=7
M  V30 8 N 0.198331 -1.174830 2.001031 0
M  V30 9 C 0.406659 -1.178887 3.148505 0
M  V30 10 S 0.287076 -0.367472 4.496996 0
M  V30 11 N 1.398583 -0.180622 -0.055884 0
M  V30 12 C 2.897817 -0.075344 -0.144721 0
M  V30 13 C 3.763145 -0.231879 -1.250358 0
M  V30 14 C 5.120361 -0.204830 -1.112292 0
M  V30 15 C 5.712287 -0.021751 0.100847 0
M  V30 16 C 4.916141 0.143579 1.209267 0
M  V30 17 C 3.513189 0.124119 1.104252 0
M  V30 18 C 3.046127 0.583955 2.419806 0
M  V30 19 C 3.863658 0.029490 3.532819 0
M  V30 20 C 3.454978 2.127090 2.507487 0
M  V30 21 C 3.218558 -0.382291 -2.572321 0
M  V30 22 C 4.391021 -0.746738 -3.535074 0
M  V30 23 C 2.841374 0.950123 -3.132198 0
M  V30 24 C 0.738107 1.138690 -0.128164 0
M  V30 25 C -0.562216 1.222512 -0.000738 0
M  V30 26 N -1.300267 -0.043009 0.200118 0
M  V30 27 C -2.746250 0.184848 0.381078 0
M  V30 28 C -3.528909 0.140802 1.534486 0
M  V30 29 C -4.862183 0.365416 1.647269 0
M  V30 30 C -5.548027 0.685575 0.513026 0
M  V30 31 C -4.835554 0.761997 -0.666125 0
M  V30 32 C -3.451095 0.531065 -0.814426 0
M  V30 33 C -3.184378 0.720473 -2.254383 0
M  V30 34 C -4.047364 1.976242 -2.702904 0
M  V30 35 C -3.950721 -0.359787 -3.016332 0
M  V30 36 C -2.831155 0.118042 2.823469 0
M  V30 37 C -3.858050 0.059246 3.977765 0
M  V30 38 C -2.209642 1.530375 3.077229 0
M  V30 39 C -0.888073 2.656050 -0.091189 0
M  V30 40 C -2.026763 3.412508 -0.012446 0
M  V30 41 C -2.059321 4.778628 -0.118404 0
M  V30 42 C -0.896196 5.494873 -0.315944 0
M  V30 43 C 0.260648 4.778661 -0.395276 0
M  V30 44 C 1.507273 5.335734 -0.579677 0
M  V30 45 C 2.595295 4.481478 -0.628441 0
M  V30 46 C 2.453693 3.142712 -0.497645 0
M  V30 47 C 1.233822 2.516230 -0.309058 0
M  V30 48 C 0.211969 3.440127 -0.281436 0
M  V30 49 O -1.343963 -2.594835 -1.000528 0
M  V30 50 C -2.635279 -2.792328 -0.811140 0
M  V30 51 C -1.160994 -3.188428 -2.260039 0
M  V30 52 C 0.331960 -3.001526 -2.323179 0
M  V30 53 O 0.290993 -1.703661 -1.756760 0
M  V30 54 C -0.153733 -0.795501 -2.686058 0
M  V30 55 H -1.431379 -2.861753 3.173799 0
M  V30 56 H -2.081283 -4.214556 2.231253 0
M  V30 57 H -2.622114 -2.551679 1.910313 0
M  V30 58 H 0.498801 -3.614889 2.918416 0
M  V30 59 H -0.483129 -5.014198 2.198896 0
M  V30 60 H 0.811412 -5.017698 0.164207 0
M  V30 61 H 1.996249 -4.583563 1.382575 0
M  V30 62 H 2.584072 -2.266617 -0.692781 0
M  V30 63 H 2.557160 -4.141773 -0.614598 0
M  V30 64 H 3.166026 -3.133427 0.647415 0
M  V30 65 H 5.764908 -0.325959 -1.959119 0
M  V30 66 H 6.796111 -0.022579 0.119273 0
M  V30 67 H 5.535446 0.283162 2.111349 0
M  V30 68 H 2.010356 0.696350 2.452806 0
M  V30 69 H 4.369624 -0.928090 3.223398 0
M  V30 70 H 3.201951 -0.249945 4.373071 0
M  V30 71 H 4.638468 0.682673 3.924475 0
M  V30 72 H 2.560597 2.739216 2.296011 0
M  V30 73 H 3.669797 2.301193 3.578366 0
M  V30 74 H 4.312812 2.291224 1.860925 0
M  V30 75 H 2.621064 -1.247346 -2.780169 0
M  V30 76 H 5.008246 0.152327 -3.704134 0
M  V30 77 H 4.932968 -1.624499 -3.208419 0
M  V30 78 H 3.873522 -0.907062 -4.529350 0
M  V30 79 H 1.859199 1.285719 -2.798381 0
M  V30 80 H 3.574070 1.719115 -2.786778 0
M  V30 81 H 2.838551 0.976588 -4.242474 0
M  V30 82 H -5.427585 0.301408 2.555470 0
M  V30 83 H -6.609743 0.854656 0.595758 0
M  V30 84 H -5.547030 1.030263 -1.475114 0
M  V30 85 H -2.222846 0.989751 -2.574130 0
M  V30 86 H -4.932787 1.667049 -3.226890 0
M  V30 87 H -3.441164 2.589537 -3.387460 0
M  V30 88 H -4.225313 2.573871 -1.797693 0
M  V30 89 H -3.298749 -1.031333 -3.540230 0
M  V30 90 H -4.678170 -0.845288 -2.315753 0
M  V30 91 H -4.589784 0.162514 -3.778604 0
M  V30 92 H -2.197167 -0.673449 3.084656 0
M  V30 93 H -4.437785 0.973602 4.073880 0
M  V30 94 H -3.257421 -0.137812 4.915802 0
M  V30 95 H -4.419060 -0.876535 3.824497 0
M  V30 96 H -2.181869 1.746372 4.169645 0
M  V30 97 H -2.865451 2.237948 2.531354 0
M  V30 98 H -1.177557 1.470618 2.745293 0
M  V30 99 H -2.921738 2.848376 0.183459 0
M  V30 100 H -3.032989 5.240105 -0.037986 0
M  V30 101 H -0.875377 6.562454 -0.404904 0
M  V30 102 H 1.603058 6.399515 -0.680693 0
M  V30 103 H 3.611942 4.821621 -0.770085 0
M  V30 104 H 3.289128 2.457607 -0.526497 0
M  V30 105 H -3.133051 -2.495428 -1.755885 0
M  V30 106 H -3.222277 -2.230504 -0.074290 0
M  V30 107 H -2.831643 -3.861669 -0.655445 0
M  V30 108 H -1.759424 -2.664136 -2.947519 0
M  V30 109 H -1.417604 -4.291184 -2.186463 0
M  V30 110 H 0.860462 -3.761409 -1.826919 0
M  V30 111 H 0.605522 -2.781666 -3.352892 0
M  V30 112 H -1.143907 -0.980279 -3.080997 0
M  V30 113 H 0.596447 -0.809843 -3.507892 0
M  V30 114 H -0.081802 0.220292 -2.233683 0
M  V30 END ATOM
M  V30 BEGIN BOND
M  V30 1 1 1 2
M  V30 2 1 2 3
M  V30 3 1 3 4
M  V30 4 1 4 5
M  V30 5 1 5 6
M  V30 6 9 5 7
M  V30 7 1 7 8
M  V30 8 2 8 9
M  V30 9 2 9 10
M  V30 10 1 7 11
M  V30 11 1 11 12
M  V30 12 2 12 13
M  V30 13 1 13 14
M  V30 14 2 14 15
M  V30 15 1 15 16
M  V30 16 2 16 17
M  V30 17 1 17 18
M  V30 18 1 18 19
M  V30 19 1 18 20
M  V30 20 1 13 21
M  V30 21 1 21 22
M  V30 22 1 21 23
M  V30 23 1 11 24
M  V30 24 2 24 25
M  V30 25 1 25 26
M  V30 26 1 26 27
M  V30 27 2 27 28
M  V30 28 1 28 29
M  V30 29 2 29 30
M  V30 30 1 30 31
M  V30 31 2 31 32
M  V30 32 1 32 33
M  V30 33 1 33 34
M  V30 34 1 33 35
M  V30 35 1 28 36
M  V30 36 1 36 37
M  V30 37 1 36 38
M  V30 38 1 25 39
M  V30 39 2 39 40
M  V30 40 1 40 41
M  V30 41 2 41 42
M  V30 42 1 42 43
M  V30 43 2 43 44
M  V30 44 1 44 45
M  V30 45 2 45 46
M  V30 46 1 46 47
M  V30 47 2 47 48
M  V30 48 9 49 7
M  V30 49 1 49 50
M  V30 50 1 49 51
M  V30 51 1 51 52
M  V30 52 1 52 53
M  V30 53 1 53 54
M  V30 54 9 2 7
M  V30 55 1 17 12
M  V30 56 1 47 24
M  V30 57 1 26 7
M  V30 58 1 32 27
M  V30 59 1 48 39
M  V30 60 9 53 7
M  V30 61 1 48 43
M  V30 62 1 1 55
M  V30 63 1 1 56
M  V30 64 1 1 57
M  V30 65 1 3 58
M  V30 66 1 3 59
M  V30 67 1 4 60
M  V30 68 1 4 61
M  V30 69 1 6 62
M  V30 70 1 6 63
M  V30 71 1 6 64
M  V30 72 1 14 65
M  V30 73 1 15 66
M  V30 74 1 16 67
M  V30 75 1 18 68
M  V30 76 1 19 69
M  V30 77 1 19 70
M  V30 78 1 19 71
M  V30 79 1 20 72
M  V30 80 1 20 73
M  V30 81 1 20 74
M  V30 82 1 21 75
M  V30 83 1 22 76
M  V30 84 1 22 77
M  V30 85 1 22 78
M  V30 86 1 23 79
M  V30 87 1 23 80
M  V30 88 1 23 81
M  V30 89 1 29 82
M  V30 90 1 30 83
M  V30 91 1 31 84
M  V30 92 1 33 85
M  V30 93 1 34 86
M  V30 94 1 34 87
M  V30 95 1 34 88
M  V30 96 1 35 89
M  V30 97 1 35 90
M  V30 98 1 35 91
M  V30 99 1 36 92
M  V30 100 1 37 93
M  V30 101 1 37 94
M  V30 102 1 37 95
M  V30 103 1 38 96
M  V30 104 1 38 97
M  V30 105 1 38 98
M  V30 106 1 40 99
M  V30 107 1 41 100
M  V30 108 1 42 101
M  V30 109 1 44 102
M  V30 110 1 45 103
M  V30 111 1 46 104
M  V30 112 1 50 105
M  V30 113 1 50 106
M  V30 114 1 50 107
M  V30 115 1 51 108
M  V30 116 1 51 109
M  V30 117 1 52 110
M  V30 118 1 52 111
M  V30 119 1 54 112
M  V30 120 1 54 113
M  V30 121 1 54 114
M  V30 END BOND
M  V30 END CTAB
M  END
