
     RDKit          3D

 64 65  0  0  0  0  0  0  0  0999 V2000
    3.7111   -0.3806    1.2012 C   0  0  0  0  0  0  0  0  0  0  0  0
    2.3663   -0.2180    0.5773 C   0  0  0  0  0  0  0  0  0  0  0  0
    1.1925   -0.4438    1.2042 N   0  0  0  0  0  0  0  0  0  0  0  0
    0.1842   -0.1994    0.3418 N   0  0  0  0  0  0  0  0  0  0  0  0
   -1.5959   -0.3576    0.7067 Pt  0  0  0  0  0  6  0  0  0  0  0  0
   -1.0296   -1.8954    1.7479 C   0  0  0  0  0  0  0  0  0  0  0  0
   -1.1931    0.5735    2.2975 C   0  0  0  0  0  0  0  0  0  0  0  0
   -3.3066   -0.5915    1.4560 C   0  0  0  0  0  0  0  0  0  0  0  0
   -1.9933   -1.6111   -0.6497 P   0  0  0  0  0  5  0  0  0  0  0  0
   -0.9449   -1.5229   -2.0039 C   0  0  0  0  0  0  0  0  0  0  0  0
   -3.4393   -1.2848   -1.6557 C   0  0  0  0  0  0  0  0  0  0  0  0
   -2.7962   -3.0229    0.0944 C   0  0  0  0  0  0  0  0  0  0  0  0
   -2.1055    1.2799   -0.1473 P   0  0  0  0  0  5  0  0  0  0  0  0
   -3.8312    1.4420   -0.2910 C   0  0  0  0  0  0  0  0  0  0  0  0
   -0.9064    2.0325   -1.1245 C   0  0  0  0  0  0  0  0  0  0  0  0
   -2.0495    2.6384    1.1050 C   0  0  0  0  0  0  0  0  0  0  0  0
    0.7370    0.1580   -0.7554 N   0  0  0  0  0  0  0  0  0  0  0  0
    2.0187    0.1859   -0.7410 C   0  0  0  0  0  0  0  0  0  0  0  0
    2.8422    0.5988   -1.9788 C   0  0  0  0  0  0  0  0  0  0  0  0
    4.1851    0.6153   -1.4922 C   0  0  0  0  0  0  0  0  0  0  0  0
    5.5386    0.8276   -1.4092 C   0  0  0  0  0  0  0  0  0  0  0  0
    5.9059    0.4140    0.0501 C   0  0  0  0  0  0  0  0  0  0  0  0
    4.7594    0.5948    1.0358 C   0  0  0  0  0  0  0  0  0  0  0  0
    4.1279   -1.3952    1.0337 H   0  0  0  0  0  0  0  0  0  0  0  0
    3.4254   -0.4396    2.2996 H   0  0  0  0  0  0  0  0  0  0  0  0
   -0.6228   -2.6490    1.0801 H   0  0  0  0  0  0  0  0  0  0  0  0
   -1.7998   -2.1710    2.4529 H   0  0  0  0  0  0  0  0  0  0  0  0
   -0.1481   -1.5759    2.3860 H   0  0  0  0  0  0  0  0  0  0  0  0
   -0.4579   -0.0069    2.9615 H   0  0  0  0  0  0  0  0  0  0  0  0
   -2.0387    0.6532    2.9956 H   0  0  0  0  0  0  0  0  0  0  0  0
   -0.5871    1.4636    2.1457 H   0  0  0  0  0  0  0  0  0  0  0  0
   -3.3456   -1.4701    2.1496 H   0  0  0  0  0  0  0  0  0  0  0  0
   -4.0697   -0.5619    0.7069 H   0  0  0  0  0  0  0  0  0  0  0  0
   -3.5525    0.2634    2.1601 H   0  0  0  0  0  0  0  0  0  0  0  0
   -1.1130   -2.6440   -0.5766 H   0  0  0  0  0  0  0  0  0  0  0  0
    0.1478   -1.6083   -2.1186 H   0  0  0  0  0  0  0  0  0  0  0  0
   -1.2640   -1.9898   -2.9927 H   0  0  0  0  0  0  0  0  0  0  0  0
   -1.0313   -0.4265   -2.2978 H   0  0  0  0  0  0  0  0  0  0  0  0
   -3.4978   -2.1726   -2.3801 H   0  0  0  0  0  0  0  0  0  0  0  0
   -4.3770   -1.3590   -1.1221 H   0  0  0  0  0  0  0  0  0  0  0  0
   -3.3939   -0.4857   -2.3725 H   0  0  0  0  0  0  0  0  0  0  0  0
   -2.4684   -3.4628    1.0539 H   0  0  0  0  0  0  0  0  0  0  0  0
   -3.2940   -3.7678   -0.5973 H   0  0  0  0  0  0  0  0  0  0  0  0
   -3.7719   -2.5944    0.5310 H   0  0  0  0  0  0  0  0  0  0  0  0
   -2.2773    0.7520   -1.2751 H   0  0  0  0  0  0  0  0  0  0  0  0
   -4.0623    2.5175   -0.6262 H   0  0  0  0  0  0  0  0  0  0  0  0
   -4.3334    1.4583    0.7308 H   0  0  0  0  0  0  0  0  0  0  0  0
   -4.5827    0.8931   -0.8326 H   0  0  0  0  0  0  0  0  0  0  0  0
   -0.0230    2.3482   -0.4716 H   0  0  0  0  0  0  0  0  0  0  0  0
   -1.2841    3.0803   -1.4056 H   0  0  0  0  0  0  0  0  0  0  0  0
   -0.3596    1.7939   -2.0296 H   0  0  0  0  0  0  0  0  0  0  0  0
   -1.0791    3.0825    1.2201 H   0  0  0  0  0  0  0  0  0  0  0  0
   -2.6460    3.5394    0.7535 H   0  0  0  0  0  0  0  0  0  0  0  0
   -2.5798    2.2468    1.9400 H   0  0  0  0  0  0  0  0  0  0  0  0
    2.4528    1.5745   -2.3672 H   0  0  0  0  0  0  0  0  0  0  0  0
    2.6412   -0.1247   -2.7951 H   0  0  0  0  0  0  0  0  0  0  0  0
    3.9315    1.3541   -0.6849 H   0  0  0  0  0  0  0  0  0  0  0  0
    4.1704   -0.4812   -1.1873 H   0  0  0  0  0  0  0  0  0  0  0  0
    6.2024    0.1655   -2.0348 H   0  0  0  0  0  0  0  0  0  0  0  0
    5.9294    1.8497   -1.5913 H   0  0  0  0  0  0  0  0  0  0  0  0
    6.7513    1.0313    0.3270 H   0  0  0  0  0  0  0  0  0  0  0  0
    6.1367   -0.6523    0.0574 H   0  0  0  0  0  0  0  0  0  0  0  0
    5.3962    0.4668    1.9886 H   0  0  0  0  0  0  0  0  0  0  0  0
    4.4985    1.6719    1.2160 H   0  0  0  0  0  0  0  0  0  0  0  0
  1  2  1  0
  2  3  2  0
  3  4  1  0
  4  5  1  0
  5  6  1  0
  5  7  1  0
  5  8  1  0
  5  9  1  0
  9 10  1  0
  9 11  1  0
  9 12  1  0
  5 13  1  0
 13 14  1  0
 13 15  1  0
 13 16  1  0
  4 17  1  0
 17 18  2  0
 18 19  1  0
 19 20  1  0
 20 21  1  0
 21 22  1  0
 22 23  1  0
 23  1  1  0
 18  2  1  0
  1 24  1  0
  1 25  1  0
  6 26  1  0
  6 27  1  0
  6 28  1  0
  7 29  1  0
  7 30  1  0
  7 31  1  0
  8 32  1  0
  8 33  1  0
  8 34  1  0
  9 35  1  0
 10 36  1  0
 10 37  1  0
 10 38  1  0
 11 39  1  0
 11 40  1  0
 11 41  1  0
 12 42  1  0
 12 43  1  0
 12 44  1  0
 13 45  1  0
 14 46  1  0
 14 47  1  0
 14 48  1  0
 15 49  1  0
 15 50  1  0
 15 51  1  0
 16 52  1  0
 16 53  1  0
 16 54  1  0
 19 55  1  0
 19 56  1  0
 20 57  1  0
 20 58  1  0
 21 59  1  0
 21 60  1  0
 22 61  1  0
 22 62  1  0
 23 63  1  0
 23 64  1  0
M  END
