
  --CCDC--092525    3D                              

 34 33  0  0  0  0  0  0  0  0999 V2000
   -0.0000    0.0000    0.0000 Br     0
    1.6400    2.8406   -0.0000 La     0
    4.4535    4.2524    0.9215 Br     0
    1.2573    6.0977   -0.0529 Br     0
   -0.4145    3.0016   -1.8209 N      0
   -1.2673    3.0664   -2.5757 C      0
   -2.3417    3.1214   -3.5574 C      0
   -0.3996    3.5228    1.7138 N      0
   -1.2459    3.8058    2.4248 C      0
   -2.3305    4.1321    3.3402 C      0
    3.3752    0.8136   -0.6655 N      0
    4.0949   -0.0256   -0.9432 C      0
    4.9940   -1.1051   -1.3269 C      0
    2.2801    1.9756    2.5307 N      0
    2.5461    1.6170    3.5807 C      0
    2.8557    1.1389    4.9210 C      0
    2.6957    3.3562   -2.4864 N      0
    3.1351    3.5684   -3.5182 C      0
    3.6815    3.8081   -4.8467 C      0
   -2.6545    2.1193   -3.8432 H      0
   -2.0177    3.6442   -4.4548 H      0
   -3.2063    3.6442   -3.1540 H      0
   -2.7920    3.2271    3.7297 H      0
   -3.0989    4.7143    2.8358 H      0
   -1.9624    4.7143    4.1825 H      0
    5.0605   -1.1850   -2.4099 H      0
    4.6408   -2.0578   -0.9378 H      0
    5.9948   -0.9301   -0.9378 H      0
    1.9436    0.9396    5.4797 H      0
    3.4347    1.8784    5.4702 H      0
    3.4347    0.2187    4.8781 H      0
    3.8899    2.8681   -5.3533 H      0
    2.9795    4.3733   -5.4562 H      0
    4.6092    4.3733   -4.7859 H      0
  1  2  1
  2  3  1
  2  4  1
  2  5  1
  5  6  3
  6  7  1
  2  8  1
  8  9  3
  9 10  1
  2 11  1
 11 12  3
 12 13  1
  2 14  1
 14 15  3
 15 16  1
  2 17  1
 17 18  3
 18 19  1
  7 20  1
  7 21  1
  7 22  1
 10 23  1
 10 24  1
 10 25  1
 13 26  1
 13 27  1
 13 28  1
 16 29  1
 16 30  1
 16 31  1
 19 32  1
 19 33  1
 19 34  1
M  END
$$$$
