
  --CCDC--092525    3D                              

 75 87  0  0  0  0  0  0  0  0999 V2000
   -3.7647   -1.8371    0.3983 H      0
   -2.8678   -1.2295    0.5092 C      0
   -1.8528   -1.3715   -0.4562 C      0
   -1.9564   -2.1112   -1.2431 H      0
   -0.6964   -0.6168   -0.3672 C      0
    0.1955   -0.7544   -0.9699 H      0
   -0.9896    0.5062    0.4268 C      0
    0.0911    1.3171    0.7763 C      0
    1.9628    1.3717    0.6417 Si     0
    2.9293    1.6288    2.2172 C      0
    2.6136    2.5469    2.7082 H      0
    3.9934    1.7114    2.0060 H      0
    2.7855    0.8179    2.9186 H      0
    2.2005    3.0317   -0.1792 C      0
    1.6975    3.0606   -1.1435 H      0
    3.2572    3.2336   -0.3419 H      0
    1.7943    3.8294    0.4391 H      0
    2.7559    0.2551   -0.6351 C      0
    2.1627    0.2469   -1.5472 H      0
    2.8743   -0.7719   -0.3103 H      0
    3.7453    0.6283   -0.8911 H      0
   -0.4508    2.3046    1.7240 C      0
   -0.0916    2.9483    2.6113 H      0
   -1.7623    1.9774    2.0493 C      0
   -2.1598    0.8218    1.2859 C      0
   -2.7704   -0.3830    1.6287 C      0
   -3.3799   -0.4791    2.5153 H      0
   -0.5007    0.0037    2.6804 Zr     0
   -1.7366   -2.2711    1.7827 Cl     0
    1.0737   -1.6625    1.1963 Cl     0
    0.8862    0.2947    4.6799 C      0
    1.1575    1.0561    3.8798 H      0
    1.1029   -1.0617    4.2087 C      0
    2.5945   -2.0582    3.5493 Si     0
    3.9053   -1.3197    2.4372 C      0
    4.6723   -2.0587    2.2154 H      0
    4.3900   -0.4795    2.9298 H      0
    3.5054   -0.9647    1.4956 H      0
    2.1698   -3.8275    3.1052 C      0
    2.0245   -3.9778    2.0396 H      0
    1.2560   -4.1340    3.6101 H      0
    2.9652   -4.4969    3.4261 H      0
    3.5739   -2.3041    5.1196 C      0
    4.4515   -2.9200    4.9343 H      0
    2.9689   -2.7957    5.8785 H      0
    3.9084   -1.3490    5.5191 H      0
   -0.2214   -1.6177    4.3245 C      0
   -0.9012   -2.3831    3.3711 C      0
   -0.3102   -3.0468    2.7453 H      0
   -2.2211   -2.6756    3.7814 C      0
   -2.6504   -3.6461    3.5331 H      0
   -3.0328   -1.8121    4.5190 C      0
   -4.0666   -2.0739    4.7189 H      0
   -2.5287   -0.6070    4.9495 C      0
   -3.1170    0.2013    5.3697 H      0
   -1.1371   -0.6246    4.8710 C      0
   -0.4583    0.5602    5.0575 C      0
   -0.9478    2.3648    5.1078 Si     0
   -1.5913    2.6891    6.8377 C      0
   -1.8922    3.7288    6.9486 H      0
   -0.8251    2.4770    7.5803 H      0
   -2.4541    2.0619    7.0521 H      0
    0.5952    3.4235    4.9670 C      0
    1.2229    3.1086    4.1371 H      0
    1.1894    3.3499    5.8754 H      0
    0.3335    4.4694    4.8207 H      0
   -2.6480    2.6886    3.5413 Si     0
   -2.9944    4.5028    3.2241 C      0
   -2.0753    5.0355    2.9888 H      0
   -3.4417    4.9688    4.0995 H      0
   -3.6800    4.6240    2.3880 H      0
   -4.3097    1.8615    3.8093 C      0
   -4.2505    0.7837    3.6998 H      0
   -5.0323    2.2237    3.0810 H      0
   -4.6952    2.0841    4.8021 H      0
  1  2  1
  2  3  4
  3  4  1
  3  5  4
  5  6  1
  5  7  4
  7  8  4
  8  9  1
  9 10  1
 10 11  1
 10 12  1
 10 13  1
  9 14  1
 14 15  1
 14 16  1
 14 17  1
  9 18  1
 18 19  1
 18 20  1
 18 21  1
  8 22  4
 22 23  1
 22 24  4
 24 25  4
  7 25  4
 25 26  4
  2 26  4
 26 27  1
 25 28  1
 22 28  1
 24 28  1
  8 28  1
  7 28  1
 28 29  1
 28 30  1
 28 31  1
 31 32  1
 31 33  4
 28 33  1
 33 34  1
 34 35  1
 35 36  1
 35 37  1
 35 38  1
 34 39  1
 39 40  1
 39 41  1
 39 42  1
 34 43  1
 43 44  1
 43 45  1
 43 46  1
 33 47  4
 28 47  1
 47 48  4
 48 49  1
 48 50  4
 50 51  1
 50 52  4
 52 53  1
 52 54  4
 54 55  1
 54 56  4
 47 56  4
 28 56  1
 56 57  4
 31 57  4
 28 57  1
 57 58  1
 58 59  1
 59 60  1
 59 61  1
 59 62  1
 58 63  1
 63 64  1
 63 65  1
 63 66  1
 58 67  1
 24 67  1
 67 68  1
 68 69  1
 68 70  1
 68 71  1
 67 72  1
 72 73  1
 72 74  1
 72 75  1
M  END
$$$$
