
     RDKit          3D

  0  0  0  0  0  0  0  0  0  0999 V3000
M  V30 BEGIN CTAB
M  V30 COUNTS 114 121 0 0 0
M  V30 BEGIN ATOM
M  V30 1 C 1.599921 -3.899607 -1.892785 0
M  V30 2 O 1.389336 -3.114439 -0.853346 0
M  V30 3 C 2.350936 -3.827676 0.029355 0
M  V30 4 C 2.087768 -3.046080 1.263776 0
M  V30 5 O 2.076100 -1.823105 0.518374 0
M  V30 6 C 3.376869 -1.525714 0.361959 0
M  V30 7 Eu 0.484508 -1.482354 -0.580381 0 VAL=7
M  V30 8 N -0.655911 -2.964959 0.185751 0
M  V30 9 C -0.992960 -3.656858 1.059824 0
M  V30 10 S -1.220922 -4.506414 2.374523 0
M  V30 11 N -1.266830 -0.653825 0.256228 0
M  V30 12 C -2.524198 -1.075244 1.022407 0
M  V30 13 C -2.663480 -0.515182 2.274688 0
M  V30 14 C -3.990798 -0.763122 2.766500 0
M  V30 15 C -4.993951 -1.440979 2.142930 0
M  V30 16 C -4.770715 -1.965134 0.918681 0
M  V30 17 C -3.539783 -1.786568 0.347702 0
M  V30 18 C -3.542542 -2.347735 -0.988926 0
M  V30 19 C -4.706535 -3.368871 -1.120730 0
M  V30 20 C -4.015109 -1.256752 -1.981679 0
M  V30 21 C -1.703683 -0.077329 3.251944 0
M  V30 22 C -1.912063 1.217262 3.967474 0
M  V30 23 C -0.593801 -1.020778 3.653703 0
M  V30 24 C -1.324564 0.746448 0.024163 0
M  V30 25 C -0.191393 1.344586 -0.088506 0
M  V30 26 N 0.938445 0.524652 0.010056 0
M  V30 27 C 2.196822 1.270484 0.393743 0
M  V30 28 C 2.914597 1.801209 -0.690362 0
M  V30 29 C 4.210915 2.322262 -0.376520 0
M  V30 30 C 4.766802 2.338101 0.893502 0
M  V30 31 C 4.067552 1.834814 1.924868 0
M  V30 32 C 2.840754 1.339763 1.606483 0
M  V30 33 C 2.042993 0.835899 2.720564 0
M  V30 34 C 2.977199 0.360919 3.818838 0
M  V30 35 C 1.440407 2.129523 3.360777 0
M  V30 36 C 2.748131 2.149343 -2.095054 0
M  V30 37 C 4.081838 1.874507 -2.866268 0
M  V30 38 C 2.674687 3.696681 -2.340713 0
M  V30 39 C -0.558913 2.754146 -0.289435 0
M  V30 40 C 0.049438 3.973959 -0.423537 0
M  V30 41 C -0.489297 5.215884 -0.574633 0
M  V30 42 C -1.894054 5.301969 -0.599737 0
M  V30 43 C -2.618874 4.129881 -0.461788 0
M  V30 44 C -3.995394 4.169211 -0.454212 0
M  V30 45 C -4.553770 2.899700 -0.271808 0
M  V30 46 C -3.832408 1.752760 -0.114634 0
M  V30 47 C -2.442540 1.739513 -0.123913 0
M  V30 48 C -1.915300 3.002334 -0.319356 0
M  V30 49 O 1.242191 -0.828944 -2.244195 0
M  V30 50 C 2.472797 -1.074294 -2.663426 0
M  V30 51 C 0.628927 -0.642045 -3.590758 0
M  V30 52 C -0.690737 -0.412496 -2.993695 0
M  V30 53 O -0.609568 -1.646015 -2.249854 0
M  V30 54 C -0.853366 -2.598918 -3.066627 0
M  V30 55 H 1.287413 -4.943207 -1.561097 0
M  V30 56 H 1.247309 -3.778695 -2.898216 0
M  V30 57 H 2.743836 -3.938272 -2.032014 0
M  V30 58 H 3.261499 -3.784732 -0.460594 0
M  V30 59 H 1.910460 -4.875145 0.104259 0
M  V30 60 H 1.210108 -3.218588 1.830243 0
M  V30 61 H 3.009665 -3.037990 1.840156 0
M  V30 62 H 3.948310 -2.316671 -0.165724 0
M  V30 63 H 3.771948 -0.597691 0.036456 0
M  V30 64 H 3.747193 -1.562783 1.472524 0
M  V30 65 H -4.255826 -0.335128 3.747161 0
M  V30 66 H -5.909684 -1.521480 2.660473 0
M  V30 67 H -5.654183 -2.463521 0.551627 0
M  V30 68 H -2.670011 -2.780195 -1.351937 0
M  V30 69 H -5.638189 -2.886813 -1.378058 0
M  V30 70 H -4.691711 -3.951883 -0.186343 0
M  V30 71 H -4.345144 -4.086526 -1.910041 0
M  V30 72 H -4.115784 -1.750730 -2.968517 0
M  V30 73 H -5.085797 -0.982227 -1.727829 0
M  V30 74 H -3.365558 -0.395503 -2.021239 0
M  V30 75 H -2.369566 -0.600721 4.250448 0
M  V30 76 H -1.506651 1.307599 4.962694 0
M  V30 77 H -1.389759 1.996625 3.327703 0
M  V30 78 H -3.002307 1.497272 3.863187 0
M  V30 79 H -1.071295 -1.981941 4.091919 0
M  V30 80 H -0.026137 -1.485914 2.839988 0
M  V30 81 H 0.109868 -0.604626 4.366256 0
M  V30 82 H 4.974559 2.787020 -1.022265 0
M  V30 83 H 5.766280 2.729433 1.166942 0
M  V30 84 H 4.418711 1.810102 2.937935 0
M  V30 85 H 1.289033 0.181356 2.521856 0
M  V30 86 H 2.491052 -0.544049 4.276374 0
M  V30 87 H 3.936088 -0.060357 3.390050 0
M  V30 88 H 3.152327 1.094603 4.618110 0
M  V30 89 H 0.821093 1.805691 4.215395 0
M  V30 90 H 0.839364 2.651328 2.630375 0
M  V30 91 H 2.290896 2.715153 3.800757 0
M  V30 92 H 1.939787 1.736262 -2.640751 0
M  V30 93 H 3.827106 1.695061 -3.940659 0
M  V30 94 H 4.493741 0.990145 -2.391192 0
M  V30 95 H 4.702150 2.785059 -2.881590 0
M  V30 96 H 1.660720 3.957170 -2.615324 0
M  V30 97 H 3.279563 3.920532 -3.268696 0
M  V30 98 H 3.040504 4.244564 -1.485056 0
M  V30 99 H 1.111183 3.915134 -0.308683 0
M  V30 100 H 0.166187 6.088047 -0.674674 0
M  V30 101 H -2.362422 6.250146 -0.722137 0
M  V30 102 H -4.544861 5.081626 -0.578081 0
M  V30 103 H -5.647461 2.807045 -0.249620 0
M  V30 104 H -4.335405 0.811197 0.023546 0
M  V30 105 H 2.453659 -2.038624 -3.270850 0
M  V30 106 H 2.729693 -0.294667 -3.472259 0
M  V30 107 H 3.261991 -1.117181 -1.981917 0
M  V30 108 H 0.870635 -1.580121 -4.017385 0
M  V30 109 H 1.111216 0.222411 -4.028353 0
M  V30 110 H -1.486712 -0.600620 -3.677792 0
M  V30 111 H -0.830528 0.445272 -2.359562 0
M  V30 112 H -0.903136 -3.659970 -2.661855 0
M  V30 113 H -0.316867 -2.663966 -4.018156 0
M  V30 114 H -1.946622 -2.489686 -3.429901 0
M  V30 END ATOM
M  V30 BEGIN BOND
M  V30 1 1 1 2
M  V30 2 1 2 3
M  V30 3 1 3 4
M  V30 4 1 4 5
M  V30 5 1 5 6
M  V30 6 9 5 7
M  V30 7 1 7 8
M  V30 8 2 8 9
M  V30 9 2 9 10
M  V30 10 1 7 11
M  V30 11 1 11 12
M  V30 12 2 12 13
M  V30 13 1 13 14
M  V30 14 2 14 15
M  V30 15 1 15 16
M  V30 16 2 16 17
M  V30 17 1 17 18
M  V30 18 1 18 19
M  V30 19 1 18 20
M  V30 20 1 13 21
M  V30 21 1 21 22
M  V30 22 1 21 23
M  V30 23 1 11 24
M  V30 24 2 24 25
M  V30 25 1 25 26
M  V30 26 1 26 27
M  V30 27 2 27 28
M  V30 28 1 28 29
M  V30 29 2 29 30
M  V30 30 1 30 31
M  V30 31 2 31 32
M  V30 32 1 32 33
M  V30 33 1 33 34
M  V30 34 1 33 35
M  V30 35 1 28 36
M  V30 36 1 36 37
M  V30 37 1 36 38
M  V30 38 1 25 39
M  V30 39 2 39 40
M  V30 40 1 40 41
M  V30 41 2 41 42
M  V30 42 1 42 43
M  V30 43 2 43 44
M  V30 44 1 44 45
M  V30 45 2 45 46
M  V30 46 1 46 47
M  V30 47 2 47 48
M  V30 48 9 49 7
M  V30 49 1 49 50
M  V30 50 1 49 51
M  V30 51 1 51 52
M  V30 52 1 52 53
M  V30 53 1 53 54
M  V30 54 9 2 7
M  V30 55 1 17 12
M  V30 56 1 47 24
M  V30 57 1 26 7
M  V30 58 1 32 27
M  V30 59 1 48 39
M  V30 60 9 53 7
M  V30 61 1 48 43
M  V30 62 1 1 55
M  V30 63 1 1 56
M  V30 64 1 1 57
M  V30 65 1 3 58
M  V30 66 1 3 59
M  V30 67 1 4 60
M  V30 68 1 4 61
M  V30 69 1 6 62
M  V30 70 1 6 63
M  V30 71 1 6 64
M  V30 72 1 14 65
M  V30 73 1 15 66
M  V30 74 1 16 67
M  V30 75 1 18 68
M  V30 76 1 19 69
M  V30 77 1 19 70
M  V30 78 1 19 71
M  V30 79 1 20 72
M  V30 80 1 20 73
M  V30 81 1 20 74
M  V30 82 1 21 75
M  V30 83 1 22 76
M  V30 84 1 22 77
M  V30 85 1 22 78
M  V30 86 1 23 79
M  V30 87 1 23 80
M  V30 88 1 23 81
M  V30 89 1 29 82
M  V30 90 1 30 83
M  V30 91 1 31 84
M  V30 92 1 33 85
M  V30 93 1 34 86
M  V30 94 1 34 87
M  V30 95 1 34 88
M  V30 96 1 35 89
M  V30 97 1 35 90
M  V30 98 1 35 91
M  V30 99 1 36 92
M  V30 100 1 37 93
M  V30 101 1 37 94
M  V30 102 1 37 95
M  V30 103 1 38 96
M  V30 104 1 38 97
M  V30 105 1 38 98
M  V30 106 1 40 99
M  V30 107 1 41 100
M  V30 108 1 42 101
M  V30 109 1 44 102
M  V30 110 1 45 103
M  V30 111 1 46 104
M  V30 112 1 50 105
M  V30 113 1 50 106
M  V30 114 1 50 107
M  V30 115 1 51 108
M  V30 116 1 51 109
M  V30 117 1 52 110
M  V30 118 1 52 111
M  V30 119 1 54 112
M  V30 120 1 54 113
M  V30 121 1 54 114
M  V30 END BOND
M  V30 END CTAB
M  END
