
 OpenBabel09252518443D

 57 60  0  0  0  0  0  0  0  0999 V2000
    0.9438    0.0997   -0.2166 C   0  0  0  0  0  0  0  0  0  0  0  0
    0.4011    1.2078   -0.9271 O   0  0  0  0  0  0  0  0  0  0  0  0
    0.7924    2.4410   -0.4676 C   0  0  0  0  0  0  0  0  0  0  0  0
    2.0776    2.6909    0.0353 C   0  0  0  0  0  0  0  0  0  0  0  0
    2.4261    3.9642    0.4913 C   0  0  0  0  0  0  0  0  0  0  0  0
    1.5040    5.0043    0.4220 C   0  0  0  0  0  0  0  0  0  0  0  0
    0.2307    4.7713   -0.1029 C   0  0  0  0  0  0  0  0  0  0  0  0
   -0.1368    3.4919   -0.5454 C   0  0  0  0  0  0  0  0  0  0  0  0
   -1.5032    3.2723   -0.9471 C   0  0  0  0  0  0  0  0  0  0  0  0
   -2.6795    3.1024   -1.1402 C   0  0  0  0  0  0  0  0  0  0  0  0
   -4.0969    2.9160   -1.3416 C   0  0  0  0  0  0  0  0  0  0  0  0
   -4.9215    2.2913   -0.4600 C   0  0  0  0  0  0  0  0  0  0  0  0
   -4.5050    1.9479    0.8918 N   0  0  0  0  0  0  0  0  0  0  0  0
   -3.2649    2.1163    1.5625 C   0  0  0  0  0  0  0  0  0  0  0  0
   -2.8052    3.3716    1.9695 C   0  0  0  0  0  0  0  0  0  0  0  0
   -1.5845    3.4807    2.6439 C   0  0  0  0  0  0  0  0  0  0  0  0
   -0.8517    2.3358    2.9592 C   0  0  0  0  0  0  0  0  0  0  0  0
   -1.3523    1.0781    2.6303 C   0  0  0  0  0  0  0  0  0  0  0  0
   -2.5560    0.9694    1.9340 C   0  0  0  0  0  0  0  0  0  0  0  0
   -5.8561    1.6505    1.8892 S   0  0  0  0  0  0  0  0  0  0  0  0
   -5.8231    0.2796    2.3559 O   0  0  0  0  0  0  0  0  0  0  0  0
   -6.1085    2.7743    2.7642 O   0  0  0  0  0  0  0  0  0  0  0  0
   -7.0065    1.7297    0.5852 C   0  0  0  0  0  0  0  0  0  0  0  0
   -8.3628    1.4556    0.7149 C   0  0  0  0  0  0  0  0  0  0  0  0
   -9.1090    1.3472   -0.4523 C   0  0  0  0  0  0  0  0  0  0  0  0
   -8.4605    1.3890   -1.6893 C   0  0  0  0  0  0  0  0  0  0  0  0
   -7.0779    1.6127   -1.7629 C   0  0  0  0  0  0  0  0  0  0  0  0
   -6.3539    1.9302   -0.6255 C   0  0  0  0  0  0  0  0  0  0  0  0
   -4.5274    3.7470   -3.0413 Si  0  0  0  0  0  0  0  0  0  0  0  0
   -3.9626    5.5688   -2.9773 C   0  0  0  0  0  0  0  0  0  0  0  0
   -3.5152    2.8445   -4.3660 C   0  0  0  0  0  0  0  0  0  0  0  0
   -6.2868    3.8760   -3.6791 C   0  0  0  0  0  0  0  0  0  0  0  0
    0.3847   -0.7931   -0.5115 H   0  0  0  0  0  0  0  0  0  0  0  0
    0.8342    0.2218    0.8657 H   0  0  0  0  0  0  0  0  0  0  0  0
    1.9928   -0.0655   -0.4808 H   0  0  0  0  0  0  0  0  0  0  0  0
    2.8292    1.9094    0.0787 H   0  0  0  0  0  0  0  0  0  0  0  0
    3.4188    4.1421    0.8981 H   0  0  0  0  0  0  0  0  0  0  0  0
    1.7720    5.9935    0.7845 H   0  0  0  0  0  0  0  0  0  0  0  0
   -0.4884    5.5865   -0.1321 H   0  0  0  0  0  0  0  0  0  0  0  0
   -3.3680    4.2680    1.7277 H   0  0  0  0  0  0  0  0  0  0  0  0
   -1.1896    4.4606    2.8987 H   0  0  0  0  0  0  0  0  0  0  0  0
    0.1106    2.4248    3.4568 H   0  0  0  0  0  0  0  0  0  0  0  0
   -0.8025    0.1818    2.9032 H   0  0  0  0  0  0  0  0  0  0  0  0
   -2.9449   -0.0144    1.6838 H   0  0  0  0  0  0  0  0  0  0  0  0
   -8.8171    1.3128    1.6903 H   0  0  0  0  0  0  0  0  0  0  0  0
  -10.1802    1.1668   -0.4063 H   0  0  0  0  0  0  0  0  0  0  0  0
   -9.0269    1.2241   -2.6038 H   0  0  0  0  0  0  0  0  0  0  0  0
   -6.5875    1.4990   -2.7205 H   0  0  0  0  0  0  0  0  0  0  0  0
   -2.8891    5.6551   -2.8014 H   0  0  0  0  0  0  0  0  0  0  0  0
   -4.2047    6.0560   -3.9277 H   0  0  0  0  0  0  0  0  0  0  0  0
   -4.5041    6.0903   -2.1817 H   0  0  0  0  0  0  0  0  0  0  0  0
   -3.7106    1.7689   -4.3125 H   0  0  0  0  0  0  0  0  0  0  0  0
   -3.7955    3.1960   -5.3630 H   0  0  0  0  0  0  0  0  0  0  0  0
   -2.4446    3.0131   -4.2235 H   0  0  0  0  0  0  0  0  0  0  0  0
   -6.6192    2.9581   -4.1709 H   0  0  0  0  0  0  0  0  0  0  0  0
   -6.9937    4.1592   -2.8953 H   0  0  0  0  0  0  0  0  0  0  0  0
   -6.3364    4.6519   -4.4515 H   0  0  0  0  0  0  0  0  0  0  0  0
  1  2  1  0  0  0  0
  1 33  1  0  0  0  0
  1 34  1  0  0  0  0
  1 35  1  0  0  0  0
  2  3  1  0  0  0  0
  3  4  1  0  0  0  0
  3  8  2  0  0  0  0
  4  5  2  0  0  0  0
  4 36  1  0  0  0  0
  5  6  1  0  0  0  0
  5 37  1  0  0  0  0
  6  7  2  0  0  0  0
  6 38  1  0  0  0  0
  7  8  1  0  0  0  0
  7 39  1  0  0  0  0
  8  9  1  0  0  0  0
  9 10  3  0  0  0  0
 10 11  1  0  0  0  0
 11 12  2  0  0  0  0
 11 29  1  0  0  0  0
 12 13  1  0  0  0  0
 12 28  1  0  0  0  0
 13 14  1  0  0  0  0
 13 20  1  0  0  0  0
 14 15  1  0  0  0  0
 14 19  2  0  0  0  0
 15 16  2  0  0  0  0
 15 40  1  0  0  0  0
 16 17  1  0  0  0  0
 16 41  1  0  0  0  0
 17 18  2  0  0  0  0
 17 42  1  0  0  0  0
 18 19  1  0  0  0  0
 18 43  1  0  0  0  0
 19 44  1  0  0  0  0
 20 21  2  0  0  0  0
 20 22  2  0  0  0  0
 20 23  1  0  0  0  0
 23 24  1  0  0  0  0
 23 28  2  0  0  0  0
 24 25  2  0  0  0  0
 24 45  1  0  0  0  0
 25 26  1  0  0  0  0
 25 46  1  0  0  0  0
 26 27  2  0  0  0  0
 26 47  1  0  0  0  0
 27 28  1  0  0  0  0
 27 48  1  0  0  0  0
 29 30  1  0  0  0  0
 29 31  1  0  0  0  0
 29 32  1  0  0  0  0
 30 49  1  0  0  0  0
 30 50  1  0  0  0  0
 30 51  1  0  0  0  0
 31 52  1  0  0  0  0
 31 53  1  0  0  0  0
 31 54  1  0  0  0  0
 32 55  1  0  0  0  0
 32 56  1  0  0  0  0
 32 57  1  0  0  0  0
M  END
$$$$
