
     RDKit          3D

 42 41  0  0  0  0  0  0  0  0999 V2000
   -0.4651   -0.6432   -1.9689 C   0  0  0  0  0  0  0  0  0  0  0  0
    0.0453   -0.8277   -0.1331 Pt  0  0  0  0  0  6  0  0  0  0  0  0
   -1.0332   -2.3460    0.5229 C   0  0  0  0  0  0  0  0  0  0  0  0
    1.4373   -2.1062   -0.6246 C   0  0  0  0  0  0  0  0  0  0  0  0
    0.5114   -0.5794    1.4748 N   0  0  0  0  0  0  0  0  0  0  0  0
    0.8252   -1.0237    2.5075 N   0  0  0  0  0  4  0  0  0  0  0  0
    1.6227   -1.6195    3.2356 N   0  0  0  0  0  2  0  0  0  0  0  0
    1.3987    0.6610   -0.0357 P   0  0  0  0  0  4  0  0  0  0  0  0
    1.0903    2.2722    0.6459 C   0  0  0  0  0  0  0  0  0  0  0  0
    3.1678    0.2834    0.4663 C   0  0  0  0  0  0  0  0  0  0  0  0
    1.9341    1.1059   -1.7601 C   0  0  0  0  0  0  0  0  0  0  0  0
   -1.5180    0.3241    0.2889 P   0  0  0  0  0  4  0  0  0  0  0  0
   -2.0270    0.5681    2.0121 C   0  0  0  0  0  0  0  0  0  0  0  0
   -1.5785    1.9901   -0.4423 C   0  0  0  0  0  0  0  0  0  0  0  0
   -3.1828   -0.3218   -0.3495 C   0  0  0  0  0  0  0  0  0  0  0  0
    0.3816   -0.7156   -2.7409 H   0  0  0  0  0  0  0  0  0  0  0  0
   -0.7511    0.3410   -2.3865 H   0  0  0  0  0  0  0  0  0  0  0  0
   -1.1372   -1.3915   -2.3564 H   0  0  0  0  0  0  0  0  0  0  0  0
   -1.5216   -2.8156   -0.3512 H   0  0  0  0  0  0  0  0  0  0  0  0
   -1.8076   -2.2259    1.2235 H   0  0  0  0  0  0  0  0  0  0  0  0
   -0.5128   -3.2192    0.9621 H   0  0  0  0  0  0  0  0  0  0  0  0
    2.1772   -1.7325   -1.3197 H   0  0  0  0  0  0  0  0  0  0  0  0
    1.9913   -2.5321    0.1844 H   0  0  0  0  0  0  0  0  0  0  0  0
    1.0871   -2.9959   -1.1928 H   0  0  0  0  0  0  0  0  0  0  0  0
    1.8430    2.5133    1.4664 H   0  0  0  0  0  0  0  0  0  0  0  0
    0.1640    2.1776    1.2631 H   0  0  0  0  0  0  0  0  0  0  0  0
    1.1381    3.1403    0.0017 H   0  0  0  0  0  0  0  0  0  0  0  0
    3.0810    0.0107    1.5461 H   0  0  0  0  0  0  0  0  0  0  0  0
    3.5417   -0.5691   -0.0930 H   0  0  0  0  0  0  0  0  0  0  0  0
    3.6668    1.2212    0.4140 H   0  0  0  0  0  0  0  0  0  0  0  0
    2.5407    1.9814   -1.7213 H   0  0  0  0  0  0  0  0  0  0  0  0
    1.0352    1.3238   -2.3680 H   0  0  0  0  0  0  0  0  0  0  0  0
    2.4472    0.2341   -2.2371 H   0  0  0  0  0  0  0  0  0  0  0  0
   -1.1078    0.7349    2.6292 H   0  0  0  0  0  0  0  0  0  0  0  0
   -2.6071   -0.2883    2.4236 H   0  0  0  0  0  0  0  0  0  0  0  0
   -2.5995    1.4692    2.0497 H   0  0  0  0  0  0  0  0  0  0  0  0
   -1.8350    2.7928    0.2758 H   0  0  0  0  0  0  0  0  0  0  0  0
   -2.3941    2.1243   -1.2162 H   0  0  0  0  0  0  0  0  0  0  0  0
   -0.6730    2.1860   -1.0502 H   0  0  0  0  0  0  0  0  0  0  0  0
   -3.1132   -0.5738   -1.3995 H   0  0  0  0  0  0  0  0  0  0  0  0
   -3.9721    0.3396   -0.0669 H   0  0  0  0  0  0  0  0  0  0  0  0
   -3.2910   -1.2680    0.2207 H   0  0  0  0  0  0  0  0  0  0  0  0
  1  2  1  0
  2  3  1  0
  2  4  1  0
  2  5  1  0
  5  6  2  0
  6  7  2  0
  2  8  1  0
  8  9  1  0
  8 10  1  0
  8 11  1  0
  2 12  1  0
 12 13  1  0
 12 14  1  0
 12 15  1  0
  1 16  1  0
  1 17  1  0
  1 18  1  0
  3 19  1  0
  3 20  1  0
  3 21  1  0
  4 22  1  0
  4 23  1  0
  4 24  1  0
  9 25  1  0
  9 26  1  0
  9 27  1  0
 10 28  1  0
 10 29  1  0
 10 30  1  0
 11 31  1  0
 11 32  1  0
 11 33  1  0
 13 34  1  0
 13 35  1  0
 13 36  1  0
 14 37  1  0
 14 38  1  0
 14 39  1  0
 15 40  1  0
 15 41  1  0
 15 42  1  0
M  CHG  2   6   1   7  -1
M  RAD  2   8   2  12   2
M  END
