
  --CCDC--092525    3D                              

 80 84  0  0  0  0  0  0  0  0999 V2000
   -0.0765    0.0161    0.0089 Cl     0
    1.1913    2.1131    0.0092 Ru     0
    0.2142    2.7029   -1.8015 C      0
    0.5073    4.0446   -2.4360 C      0
    0.2452    4.2245   -3.8011 C      0
    0.5229    5.4258   -4.4333 C      0
    1.0643    6.4623   -3.7164 C      0
    1.3313    6.3082   -2.3690 C      0
    1.0640    5.1148   -1.7050 C      0
    1.3978    5.0182   -0.2248 C      0
    2.0287    6.3134    0.2412 C      0
    2.2982    3.9429    0.0105 N      0
    3.2927    3.9176   -1.0035 C      0
    2.9268    4.1032    1.2737 C      0
    0.2007    2.7067    2.1679 Cl     0
    3.0274    1.0153   -0.0695 C      0
    3.4402    0.6832   -1.4444 N      0
    3.2713   -0.7674   -1.6608 C      0
    3.4854   -1.3630   -0.2944 C      0
    2.8825   -0.3225    0.5583 N      0
    2.9580   -0.4500    1.9841 C      0
    3.8130    0.3959    2.6929 C      0
    5.0196    1.1564    2.1997 C      0
    3.5629    0.4528    4.0607 C      0
    2.3180   -0.1199    4.5008 C      0
    1.8765    0.2153    5.9046 C      0
    1.4667   -0.9991    3.7507 C      0
    2.1859   -1.4148    2.6344 C      0
    2.2588   -2.8820    2.3331 C      0
    4.5802    1.3505   -2.0026 C      0
    5.8563    1.1752   -1.4603 C      0
    6.3544   -0.0045   -0.6624 C      0
    6.7905    2.1446   -1.8126 C      0
    6.6833    2.8172   -3.0202 C      0
    7.7811    3.7297   -3.5098 C      0
    5.5570    2.5640   -3.7896 C      0
    4.4027    2.0896   -3.1735 C      0
    3.0672    2.4404   -3.7788 C      0
   -0.4859    2.0267   -2.2813 H      0
   -0.1845    3.4050   -4.3754 H      0
    0.3122    5.5465   -5.4949 H      0
    1.2840    7.4081   -4.2095 H      0
    1.7611    7.1406   -1.8137 H      0
    0.4662    4.8516    0.3382 H      0
    2.9647    6.4996   -0.2813 H      0
    2.2207    6.3267    1.3125 H      0
    1.3633    7.1521    0.0471 H      0
    4.1654    3.3722   -0.6504 H      0
    2.9539    3.4172   -1.9081 H      0
    3.6140    4.9251   -1.2600 H      0
    3.2887    3.1428    1.6350 H      0
    2.2270    4.4947    2.0091 H      0
    3.7861    4.7693    1.2208 H      0
    4.0101   -1.1426   -2.3674 H      0
    2.2710   -0.9907   -2.0287 H      0
    4.5441   -1.4958   -0.0766 H      0
    2.9705   -2.3166   -0.1877 H      0
    4.8718    2.2291    2.3038 H      0
    5.9052    0.8814    2.7688 H      0
    5.2120    0.9386    1.1514 H      0
    4.2272    0.9724    4.7431 H      0
    2.7363    0.3951    6.5467 H      0
    1.2988   -0.6013    6.3325 H      0
    1.2561    1.1090    5.9107 H      0
    0.5438   -1.4378    4.1127 H      0
    1.8699   -3.0184    1.3504 H      0
    1.6617   -3.4636    3.0324 H      0
    3.2845   -3.2441    2.3587 H      0
    6.4043   -0.8966   -1.2832 H      0
    5.6918   -0.2111    0.1754 H      0
    7.3494    0.1897   -0.2674 H      0
    7.6769    2.2824   -1.2028 H      0
    7.8309    3.7246   -4.5966 H      0
    8.7477    3.4114   -3.1247 H      0
    7.6065    4.7528   -3.1833 H      0
    5.5251    2.8895   -4.8237 H      0
    2.9693    2.0096   -4.7730 H      0
    2.9538    3.5191   -3.8640 H      0
    2.2536    2.0616   -3.1637 H      0
    3.8165    1.5758    0.4296 H      0
  1  2  1
  2  3  2
  3  4  1
  4  5  4
  5  6  4
  6  7  4
  7  8  4
  8  9  4
  4  9  4
  9 10  1
 10 11  1
 10 12  1
  2 12  1
 12 13  1
 12 14  1
  2 15  1
  2 16  1
 16 17  1
 17 18  1
 18 19  1
 19 20  1
 16 20  1
 20 21  1
 21 22  4
 22 23  1
 22 24  4
 24 25  4
 25 26  1
 25 27  4
 27 28  4
 21 28  4
 28 29  1
 17 30  1
 30 31  4
 31 32  1
 31 33  4
 33 34  4
 34 35  1
 34 36  4
 36 37  4
 30 37  4
 37 38  1
  3 39  1
  5 40  1
  6 41  1
  7 42  1
  8 43  1
 10 44  1
 11 45  1
 11 46  1
 11 47  1
 13 48  1
 13 49  1
 13 50  1
 14 51  1
 14 52  1
 14 53  1
 18 54  1
 18 55  1
 19 56  1
 19 57  1
 23 58  1
 23 59  1
 23 60  1
 24 61  1
 26 62  1
 26 63  1
 26 64  1
 27 65  1
 29 66  1
 29 67  1
 29 68  1
 32 69  1
 32 70  1
 32 71  1
 33 72  1
 35 73  1
 35 74  1
 35 75  1
 36 76  1
 38 77  1
 38 78  1
 38 79  1
 16 80  1
M  END
$$$$
