
  --CCDC--092525    3D                              

 73 75  0  0  0  0  0  0  0  0999 V2000
    1.1226   -0.2980   -0.2229 H      0
    1.5451    0.7006   -0.1854 C      0
    1.9119    1.3420   -1.3473 C      0
    1.7754    0.8474   -2.3033 H      0
    2.4553    2.6152   -1.3013 C      0
    2.7387    3.1034   -2.2259 H      0
    2.6448    3.2706   -0.0875 C      0
    3.2448    4.6630   -0.0550 C      0
    3.4101    5.6082   -0.7641 C      0
    3.1309    6.1150   -2.1341 C      0
    3.6805    5.4953   -3.2526 C      0
    4.3464    4.6486   -3.1267 H      0
    3.3977    5.9571   -4.5273 C      0
    3.8319    5.4624   -5.3899 H      0
    2.5696    7.0435   -4.7046 C      0
    2.3503    7.4038   -5.7042 H      0
    2.0219    7.6713   -3.6077 C      0
    1.3707    8.5283   -3.7446 H      0
    2.2978    7.2116   -2.3308 C      0
    1.8565    7.7104   -1.4743 H      0
    3.8921    6.1312    1.0182 Co     3
    2.7413    7.6370    1.3431 N      0
    2.0233    8.5076    1.5411 C      0
    1.1032    9.6001    1.8252 C      0
    0.6898   10.0055    0.9041 H      0
    1.6114   10.4052    2.3518 H      0
    0.2775    9.2576    2.4454 H      0
    2.8450    5.6252    3.0235 P      0
    1.1105    5.6532    2.4893 C      0
    0.5720    6.4490    2.9996 H      0
    0.6278    4.7153    2.7535 H      0
    0.9715    5.7851    1.4218 H      0
    3.5666    6.9406    4.0400 C      0
    4.6458    6.8357    4.1062 H      0
    3.1685    6.8869    5.0511 H      0
    3.3529    7.9362    3.6667 H      0
    2.7754    4.3317    4.2947 C      0
    3.0942    3.3627    3.9222 H      0
    1.7511    4.2228    4.6449 H      0
    3.3749    4.5740    5.1658 H      0
    5.8071    5.1558    1.9422 P      0
    5.7949    4.5193    3.6350 C      0
    5.1183    3.6725    3.7182 H      0
    5.4927    5.2784    4.3510 H      0
    6.7877    4.1729    3.9145 H      0
    7.1773    6.2881    2.2997 C      0
    7.5963    6.7547    1.4165 H      0
    7.9881    5.7127    2.7415 H      0
    6.9228    7.0470    3.0290 H      0
    5.5907    3.5136    1.2155 C      0
    4.6875    3.0388    1.5882 H      0
    6.4307    2.8729    1.4754 H      0
    5.5381    3.5673    0.1302 H      0
    5.2210    7.9859    0.5651 P      0
    5.2696    8.7465    2.2088 C      0
    4.3285    9.2279    2.4546 H      0
    6.0396    9.5144    2.2440 H      0
    5.4729    8.0315    2.9935 H      0
    6.2460    7.1552   -0.6773 C      0
    6.7548    6.2815   -0.2915 H      0
    5.6439    6.8398   -1.5259 H      0
    7.0042    7.8388   -1.0535 H      0
    4.4798    9.2707   -0.4730 C      0
    3.6841    9.8057    0.0356 H      0
    4.0778    8.8422   -1.3870 H      0
    5.2350    9.9985   -0.7624 H      0
    2.2559    2.6102    1.0713 C      0
    2.3694    3.1065    2.0238 H      0
    1.7160    1.3359    1.0240 C      0
    1.4245    0.8375    1.9426 H      0
    3.5888    4.5301    2.5787 H      0
    6.8260    4.8735    1.0265 H      0
    6.5646    8.1486    0.9063 H      0
  1  2  1
  2  3  4
  3  4  1
  3  5  4
  5  6  1
  5  7  4
  7  8  1
  8  9  3
  9 10  1
 10 11  4
 11 12  1
 11 13  4
 13 14  1
 13 15  4
 15 16  1
 15 17  4
 17 18  1
 17 19  4
 10 19  4
 19 20  1
  9 21  1
  8 21  1
 21 22  1
 22 23  3
 23 24  1
 24 25  1
 24 26  1
 24 27  1
 21 28  1
 28 29  1
 29 30  1
 29 31  1
 29 32  1
 28 33  1
 33 34  1
 33 35  1
 33 36  1
 28 37  1
 37 38  1
 37 39  1
 37 40  1
 21 41  1
 41 42  1
 42 43  1
 42 44  1
 42 45  1
 41 46  1
 46 47  1
 46 48  1
 46 49  1
 41 50  1
 50 51  1
 50 52  1
 50 53  1
 21 54  1
 54 55  1
 55 56  1
 55 57  1
 55 58  1
 54 59  1
 59 60  1
 59 61  1
 59 62  1
 54 63  1
 63 64  1
 63 65  1
 63 66  1
  7 67  4
 67 68  1
 67 69  4
  2 69  4
 69 70  1
 28 71  1
 41 72  1
 54 73  1
M  CHG  1  21   1
M  END
$$$$
