
  --CCDC--092525    3D                              

114121  0  0  0  0  0  0  0  0999 V2000
    0.6547   -0.1332   -0.0933 H      0
    1.0661    0.8698   -0.0492 C      0
    1.3021    1.5676   -1.2176 C      0
    1.0790    1.1017   -2.1716 H      0
    1.8151    2.8614   -1.1942 C      0
    2.0266    3.5737   -2.5211 C      0
    2.3758    4.6012   -2.3389 H      0
    3.0542    2.8470   -3.3871 C      0
    2.8136    2.9516   -4.4425 H      0
    3.0689    1.7861   -3.1519 H      0
    4.0542    3.2411   -3.2302 H      0
    0.7126    3.6370   -3.2947 C      0
    0.3314    2.6364   -3.4865 H      0
    0.8477    4.1422   -4.2484 H      0
   -0.0389    4.1818   -2.7311 H      0
    2.0949    3.4412    0.0590 C      0
    2.6526    4.7527    0.0889 N      0
    4.0028    5.0059   -0.2722 C      0
    4.5138    6.3085   -0.3220 C      0
    5.9379    6.1965   -0.7121 C      0
    7.0587    6.9942   -0.8118 C      0
    7.0176    8.0209   -0.4758 H      0
    8.2627    6.4909   -1.2916 C      0
    9.1099    7.1613   -1.3912 H      0
    8.4203    5.1786   -1.6319 C      0
    9.3685    4.8255   -2.0238 H      0
    7.3459    4.2798   -1.4513 C      0
    7.3741    2.8861   -1.6944 C      0
    8.2680    2.4224   -2.0990 H      0
    6.2757    2.1222   -1.4155 C      0
    6.3171    1.0534   -1.5981 H      0
    5.1065    2.6717   -0.9041 C      0
    4.2594    2.0314   -0.6821 H      0
    5.0102    4.0305   -0.7005 C      0
    6.1343    4.8242   -0.9780 C      0
    3.6610    7.4570   -0.0804 N      0
    4.1997    8.7650   -0.4111 C      0
    4.7488    8.9410   -1.7210 C      0
    4.1779    8.3856   -3.0385 C      0
    3.2702    7.8265   -2.7713 H      0
    5.0649    7.4588   -3.8703 C      0
    4.5199    7.0741   -4.7298 H      0
    5.4076    6.6071   -3.2883 H      0
    5.9317    7.9964   -4.2474 H      0
    3.7048    9.4603   -4.0172 C      0
    3.1840    9.0090   -4.8585 H      0
    4.5444   10.0291   -4.4111 H      0
    3.0136   10.1477   -3.5327 H      0
    5.8751    9.7730   -1.8246 C      0
    6.4263    9.8705   -2.7524 H      0
    6.3488   10.4903   -0.7488 C      0
    7.2866   11.0310   -0.8131 H      0
    5.5665   10.5715    0.3754 C      0
    5.8561   11.2468    1.1720 H      0
    4.3704    9.8724    0.4733 C      0
    3.4318   10.6098    1.4202 C      0
    2.4888   10.0443    1.3620 H      0
    3.8244   10.5547    2.8915 C      0
    4.8406   10.8999    3.0295 H      0
    3.7769    9.5316    3.2563 H      0
    3.1568   11.1577    3.5037 H      0
    3.0521   12.0172    0.9777 C      0
    2.2157   12.3842    1.5697 H      0
    2.7583   12.0425   -0.0686 H      0
    3.8774   12.6972    1.1196 H      0
    1.2366    6.8408    0.8815 Eu     0
   -0.3377    5.1820    2.2385 N      0
   -1.1554    4.3828    2.9242 C      0
   -2.2042    3.3577    3.8039 S      0
    2.4861    7.0582    3.2039 O      0
    3.8725    6.9505    3.4070 C      0
    4.2187    5.9331    3.2464 H      0
    4.1342    7.2492    4.4194 H      0
    4.4102    7.6014    2.7208 H      0
    1.6474    7.4267    4.2740 C      0
    0.9443    6.6067    4.4681 H      0
    2.2252    7.5705    5.1957 H      0
    0.8743    8.6775    3.9287 C      0
    0.0462    8.7964    4.6388 H      0
    1.5073    9.5599    4.0609 H      0
    0.3693    8.6662    2.6047 O      0
   -0.8584    9.3200    2.4287 C      0
   -1.0173    9.5577    1.3794 H      0
   -1.6845    8.6967    2.7663 H      0
   -0.8733   10.2498    2.9930 H      0
    0.3962    8.5885   -0.9463 O      0
    1.2814    9.2499   -1.8027 C      0
    0.7960   10.1165   -2.2450 H      0
    1.5466    8.5746   -2.6090 H      0
    2.1836    9.5922   -1.3156 H      0
   -0.6556    8.1749   -1.7940 C      0
   -1.2417    9.0446   -2.1159 H      0
   -0.2378    7.7283   -2.7041 H      0
   -1.5332    7.1723   -1.1159 C      0
   -2.0113    7.6024   -0.2286 H      0
   -2.3328    6.8409   -1.7889 H      0
   -0.6942    6.1023   -0.7725 O      0
   -1.4153    4.9346   -0.4845 C      0
   -0.7460    4.0885   -0.3485 H      0
   -2.0922    4.6961   -1.3013 H      0
   -2.0020    5.0553    0.4241 H      0
    1.8889    2.7388    1.2629 C      0
    2.2474    3.3402    2.6157 C      0
    1.9338    4.3956    2.6156 H      0
    3.7577    3.2789    2.8417 C      0
    4.2910    3.8020    2.0514 H      0
    4.0263    3.7363    3.7915 H      0
    4.1037    2.2473    2.8549 H      0
    1.5635    2.6293    3.7847 C      0
    2.0034    1.6469    3.9417 H      0
    0.5038    2.4864    3.5915 H      0
    1.6695    3.2004    4.7051 H      0
    1.3615    1.4466    1.1725 C      0
    1.1821    0.8589    2.0654 H      0
  1  2  1
  2  3  4
  3  4  1
  3  5  4
  5  6  1
  6  7  1
  6  8  1
  8  9  1
  8 10  1
  8 11  1
  6 12  1
 12 13  1
 12 14  1
 12 15  1
  5 16  4
 16 17  1
 17 18  1
 18 19  2
 19 20  1
 20 21  4
 21 22  1
 21 23  4
 23 24  1
 23 25  4
 25 26  1
 25 27  4
 27 28  4
 28 29  1
 28 30  4
 30 31  1
 30 32  4
 32 33  1
 32 34  4
 18 34  1
 34 35  4
 20 35  4
 27 35  4
 19 36  1
 36 37  1
 37 38  4
 38 39  1
 39 40  1
 39 41  1
 41 42  1
 41 43  1
 41 44  1
 39 45  1
 45 46  1
 45 47  1
 45 48  1
 38 49  4
 49 50  1
 49 51  4
 51 52  1
 51 53  4
 53 54  1
 53 55  4
 37 55  4
 55 56  1
 56 57  1
 56 58  1
 58 59  1
 58 60  1
 58 61  1
 56 62  1
 62 63  1
 62 64  1
 62 65  1
 36 66  1
 17 66  1
 66 67  1
 67 68  4
 68 69  4
 66 70  1
 70 71  1
 71 72  1
 71 73  1
 71 74  1
 70 75  1
 75 76  1
 75 77  1
 75 78  1
 78 79  1
 78 80  1
 78 81  1
 66 81  1
 81 82  1
 82 83  1
 82 84  1
 82 85  1
 66 86  1
 86 87  1
 87 88  1
 87 89  1
 87 90  1
 86 91  1
 91 92  1
 91 93  1
 91 94  1
 94 95  1
 94 96  1
 94 97  1
 66 97  1
 97 98  1
 98 99  1
 98100  1
 98101  1
 16102  4
102103  1
103104  1
103105  1
105106  1
105107  1
105108  1
103109  1
109110  1
109111  1
109112  1
102113  4
  2113  4
113114  1
M  END
$$$$
