
  --CCDC--092525    3D                              

 19 24  0  0  0  0  0  0  0  0999 V2000
   -0.0001    0.0001   -0.0000 H      0
   -1.5691    0.4284    0.0000 Si     0
   -3.3744    1.2121   -0.6302 Cl     0
   -3.1774    0.1782    1.2732 Cl     0
   -3.0508   -0.8667   -0.6302 Cl     0
    0.6435    1.8636   -0.0000 Mn     0
    1.3561    0.6626   -1.8151 C      0
    1.7107    0.0650   -2.7183 O      0
   -0.6357    2.3028   -1.8481 C      0
   -1.2723    2.5206   -2.7686 O      0
    1.1200    2.3791    2.0603 C      0
    0.4159    3.4454    1.4744 C      0
    1.2525    3.9112    0.4020 C      0
    2.4595    3.0420    0.0007 C      0
    3.5282    3.1552   -1.0637 C      0
    2.3383    2.2406    1.3070 C      0
    3.2859    2.5312   -1.9214 H      0
    4.4939    2.8380   -0.6758 H      0
    3.6223    4.1830   -1.4081 H      0
  1  2  1
  2  3  1
  2  4  1
  2  5  1
  2  6  1
  1  6  1
  6  7  1
  7  8  3
  6  9  1
  9 10  3
  6 11  1
 11 12  4
  6 12  1
 12 13  4
  6 13  1
 13 14  4
  6 14  1
 14 15  1
 14 16  4
  6 16  1
 11 16  4
 15 17  1
 15 18  1
 15 19  1
M  END
$$$$
