
     RDKit          3D

 44 43  0  0  0  0  0  0  0  0999 V2000
    3.0285    0.2004   -0.6753 C   0  0  0  0  0  0  0  0  0  0  0  0
    1.6262   -0.4834    0.1765 P   0  0  0  0  0  5  0  0  0  0  0  0
    1.4400   -1.9222   -0.8991 C   0  0  0  0  0  0  0  0  0  0  0  0
    1.7249   -1.2874    1.7395 C   0  0  0  0  0  0  0  0  0  0  0  0
    0.0686    0.6609    0.0405 Pt  0  0  0  0  0  6  0  0  0  0  0  0
    0.1867    1.0855    1.8198 N   0  0  0  0  0  0  0  0  0  0  0  0
   -0.1895    2.1146    2.3289 N   0  0  0  0  0  4  0  0  0  0  0  0
   -0.7256    3.0424    2.8898 N   0  0  0  0  0  2  0  0  0  0  0  0
    0.0402    0.7082   -1.7888 C   0  0  0  0  0  0  0  0  0  0  0  0
    1.2811    2.0887   -0.1458 C   0  0  0  0  0  0  0  0  0  0  0  0
   -1.3080    2.0133    0.0188 C   0  0  0  0  0  0  0  0  0  0  0  0
   -1.3243   -0.6178    0.2508 P   0  0  0  0  0  5  0  0  0  0  0  0
   -2.8126    0.1422    0.9438 C   0  0  0  0  0  0  0  0  0  0  0  0
   -1.1499   -2.3300    0.3675 C   0  0  0  0  0  0  0  0  0  0  0  0
   -2.1940   -0.7707   -1.3782 C   0  0  0  0  0  0  0  0  0  0  0  0
    3.3231    1.2353   -0.7806 H   0  0  0  0  0  0  0  0  0  0  0  0
    3.9061   -0.5288   -0.6401 H   0  0  0  0  0  0  0  0  0  0  0  0
    2.8011    0.0471   -1.7909 H   0  0  0  0  0  0  0  0  0  0  0  0
    2.2928    0.3201    1.0112 H   0  0  0  0  0  0  0  0  0  0  0  0
    2.3330   -2.1295   -1.5594 H   0  0  0  0  0  0  0  0  0  0  0  0
    1.3600   -2.8646   -0.3652 H   0  0  0  0  0  0  0  0  0  0  0  0
    0.6766   -1.5937   -1.5553 H   0  0  0  0  0  0  0  0  0  0  0  0
    0.9162   -1.0823    2.4798 H   0  0  0  0  0  0  0  0  0  0  0  0
    1.5300   -2.4097    1.6465 H   0  0  0  0  0  0  0  0  0  0  0  0
    2.7381   -1.4397    2.2384 H   0  0  0  0  0  0  0  0  0  0  0  0
   -0.3421   -0.0930   -2.3446 H   0  0  0  0  0  0  0  0  0  0  0  0
   -0.5164    1.6207   -2.1656 H   0  0  0  0  0  0  0  0  0  0  0  0
    1.0686    0.9226   -2.1989 H   0  0  0  0  0  0  0  0  0  0  0  0
    0.8196    3.0713    0.1849 H   0  0  0  0  0  0  0  0  0  0  0  0
    2.0884    1.9660    0.6379 H   0  0  0  0  0  0  0  0  0  0  0  0
    1.6413    2.2908   -1.1421 H   0  0  0  0  0  0  0  0  0  0  0  0
   -0.8325    3.0418   -0.0660 H   0  0  0  0  0  0  0  0  0  0  0  0
   -1.9409    1.9606   -0.8409 H   0  0  0  0  0  0  0  0  0  0  0  0
   -1.7995    2.0729    1.0026 H   0  0  0  0  0  0  0  0  0  0  0  0
   -1.1265   -0.8084    1.5298 H   0  0  0  0  0  0  0  0  0  0  0  0
   -2.8870    0.6425    1.8891 H   0  0  0  0  0  0  0  0  0  0  0  0
   -3.2808    0.9165    0.2733 H   0  0  0  0  0  0  0  0  0  0  0  0
   -3.6091   -0.6616    0.9549 H   0  0  0  0  0  0  0  0  0  0  0  0
   -0.9762   -2.9350   -0.5956 H   0  0  0  0  0  0  0  0  0  0  0  0
   -0.5363   -2.9635    1.0021 H   0  0  0  0  0  0  0  0  0  0  0  0
   -2.2537   -2.7040    0.4576 H   0  0  0  0  0  0  0  0  0  0  0  0
   -3.1917   -1.2969   -1.2549 H   0  0  0  0  0  0  0  0  0  0  0  0
   -2.2358    0.2393   -1.7014 H   0  0  0  0  0  0  0  0  0  0  0  0
   -1.6585   -1.4817   -1.9952 H   0  0  0  0  0  0  0  0  0  0  0  0
  1  2  1  0
  2  3  1  0
  2  4  1  0
  2  5  1  0
  5  6  1  0
  6  7  2  0
  7  8  2  0
  5  9  1  0
  5 10  1  0
  5 11  1  0
  5 12  1  0
 12 13  1  0
 12 14  1  0
 12 15  1  0
  1 16  1  0
  1 17  1  0
  1 18  1  0
  2 19  1  0
  3 20  1  0
  3 21  1  0
  3 22  1  0
  4 23  1  0
  4 24  1  0
  4 25  1  0
  9 26  1  0
  9 27  1  0
  9 28  1  0
 10 29  1  0
 10 30  1  0
 10 31  1  0
 11 32  1  0
 11 33  1  0
 11 34  1  0
 12 35  1  0
 13 36  1  0
 13 37  1  0
 13 38  1  0
 14 39  1  0
 14 40  1  0
 14 41  1  0
 15 42  1  0
 15 43  1  0
 15 44  1  0
M  CHG  2   7   1   8  -1
M  END
