
  --CCDC--092525    3D                              

111119  0  0  0  0  0  0  0  0999 V2000
    0.8071    0.7022   -2.9447 H      0
    1.7003    0.2723   -2.5049 C      0
    1.7334    0.0061   -1.2083 N      0
    0.5662    0.2577   -0.3374 C      0
   -0.3237    0.6892   -0.8510 H      0
    0.5346    1.0747    0.9635 C      0
    0.1133    0.5286    2.1804 C      0
   -0.3371   -0.4562    2.2246 H      0
    0.2716    1.1783    3.3866 C      0
    0.0692    0.6484    4.3114 H      0
    0.6838    2.4852    3.4070 C      0
    0.9012    2.9827    4.3472 H      0
    0.7736    3.1533    2.2097 C      0
    0.9282    4.2271    2.2077 H      0
    0.6614    2.4534    1.0136 C      0
    0.6646    2.9998    0.0820 H      0
    0.1164   -1.1801   -0.1542 C      0
   -0.7720   -1.0717    0.5070 H      0
   -0.5210   -1.6952   -1.4392 C      0
    0.2617   -2.5725   -2.1852 C      0
    1.2545   -2.8203   -1.8279 H      0
   -0.1890   -3.1776   -3.3445 C      0
    0.4517   -3.8754   -3.8758 H      0
   -1.4468   -2.9028   -3.8182 C      0
   -1.8004   -3.3604   -4.7347 H      0
   -2.2519   -2.0493   -3.0968 C      0
   -3.2508   -1.8363   -3.4657 H      0
   -1.8029   -1.4763   -1.9086 C      0
   -2.4584   -0.8670   -1.3157 H      0
    1.3501   -1.6536    0.4529 N      0
    1.9033   -1.5378    1.6622 C      0
    1.4928   -2.1396    2.4746 H      0
    3.0510   -0.5479    2.0074 C      0
    2.6119    0.2325    2.6483 H      0
    3.6855   -1.0733    2.7341 H      0
    4.2128    0.3782    0.8725 P      0
    3.7285    2.1241    0.7110 C      0
    3.0934    2.6881   -0.4014 C      0
    2.9043    2.0837   -1.2751 H      0
    2.7191    4.0174   -0.4211 C      0
    2.1714    4.3951   -1.2780 H      0
    2.9455    4.8420    0.6634 C      0
    2.3639    6.2340    0.7026 C      0
    1.7845    6.3782    1.6122 H      0
    1.6995    6.4000   -0.1427 H      0
    3.1493    6.9841    0.6715 H      0
    3.6942    4.3268    1.7089 C      0
    3.9908    4.9820    2.5188 H      0
    4.0779    2.9975    1.7440 C      0
    4.6803    2.6270    2.5669 H      0
    5.5959    0.2088   -0.3137 C      0
    6.6216   -0.7449   -0.2485 C      0
    6.6107   -1.5013    0.5296 H      0
    7.6700   -0.7261   -1.1672 C      0
    8.4412   -1.4867   -1.1112 H      0
    7.7622    0.2328   -2.1681 C      0
    8.8810    0.3208   -3.1784 C      0
    9.1971   -0.6616   -3.5119 H      0
    9.7441    0.8372   -2.7674 H      0
    8.5411    0.8773   -4.0486 H      0
    6.7300    1.1357   -2.2599 C      0
    6.7575    1.8824   -3.0450 H      0
    5.6614    1.0998   -1.3932 C      0
    4.8626    1.7965   -1.5849 H      0
    3.2351   -1.4928   -0.5366 Fe     0
    3.8200   -2.8275    1.1198 N      0
    4.1243   -3.5221    1.9818 C      0
    4.4465   -4.3900    3.1050 C      0
    3.6510   -5.1076    3.3048 H      0
    4.6070   -3.8040    4.0062 H      0
    5.3660   -4.9216    2.8866 H      0
    4.7455   -3.0204   -0.9824 N      0
    5.5166   -3.8584   -0.9583 C      0
    6.4589   -4.9668   -0.8962 C      0
    6.5819   -5.4449   -1.8624 H      0
    6.1170   -5.7195   -0.1871 H      0
    7.4365   -4.6137   -0.5621 H      0
    3.5382   -1.6204   -3.0911 P      0
    5.1356   -1.4848   -3.9643 C      0
    5.2760   -0.6133   -5.0500 C      0
    4.4530    0.0233   -5.3489 H      0
    6.4426   -0.5721   -5.7922 C      0
    6.5066    0.1026   -6.6368 H      0
    7.5269   -1.3777   -5.5035 C      0
    8.8056   -1.2995   -6.3008 C      0
    9.6471   -1.6699   -5.7200 H      0
    9.0184   -0.2726   -6.5866 H      0
    8.7273   -1.8967   -7.2057 H      0
    7.3872   -2.2587   -4.4510 C      0
    8.2057   -2.9274   -4.2085 H      0
    6.2210   -2.3288   -3.7148 C      0
    6.1551   -3.0958   -2.9683 H      0
    3.2724   -3.3647   -3.5465 C      0
    3.5069   -3.7473   -4.8667 C      0
    3.7663   -2.9902   -5.5970 H      0
    3.4432   -5.0774   -5.2471 C      0
    3.6695   -5.3462   -6.2734 H      0
    3.1052   -6.0798   -4.3527 C      0
    3.1036   -7.5269   -4.7925 C      0
    2.2439   -8.0594   -4.3921 H      0
    4.0036   -8.0412   -4.4612 H      0
    3.0652   -7.5930   -5.8778 H      0
    2.7534   -5.6915   -3.0679 C      0
    2.4149   -6.4373   -2.3553 H      0
    2.8334   -4.3663   -2.6695 C      0
    2.5573   -4.1026   -1.6540 H      0
    2.9422    0.0690   -3.3078 C      0
    2.7588    0.2679   -4.3688 H      0
    3.7101    0.7795   -2.9843 H      0
    5.1502    0.2107    1.8950 H      0
    2.3656   -1.6739   -3.8601 H      0
  1  2  1
  2  3  2
  3  4  1
  4  5  1
  4  6  1
  6  7  4
  7  8  1
  7  9  4
  9 10  1
  9 11  4
 11 12  1
 11 13  4
 13 14  1
 13 15  4
  6 15  4
 15 16  1
  4 17  1
 17 18  1
 17 19  1
 19 20  4
 20 21  1
 20 22  4
 22 23  1
 22 24  4
 24 25  1
 24 26  4
 26 27  1
 26 28  4
 19 28  4
 28 29  1
 17 30  1
 30 31  2
 31 32  1
 31 33  1
 33 34  1
 33 35  1
 33 36  1
 36 37  1
 37 38  4
 38 39  1
 38 40  4
 40 41  1
 40 42  4
 42 43  1
 43 44  1
 43 45  1
 43 46  1
 42 47  4
 47 48  1
 47 49  4
 37 49  4
 49 50  1
 36 51  1
 51 52  4
 52 53  1
 52 54  4
 54 55  1
 54 56  4
 56 57  1
 57 58  1
 57 59  1
 57 60  1
 56 61  4
 61 62  1
 61 63  4
 51 63  4
 63 64  1
 36 65  1
  3 65  1
 30 65  1
 65 66  1
 66 67  3
 67 68  1
 68 69  1
 68 70  1
 68 71  1
 65 72  1
 72 73  3
 73 74  1
 74 75  1
 74 76  1
 74 77  1
 65 78  1
 78 79  1
 79 80  4
 80 81  1
 80 82  4
 82 83  1
 82 84  4
 84 85  1
 85 86  1
 85 87  1
 85 88  1
 84 89  4
 89 90  1
 89 91  4
 79 91  4
 91 92  1
 78 93  1
 93 94  4
 94 95  1
 94 96  4
 96 97  1
 96 98  4
 98 99  1
 99100  1
 99101  1
 99102  1
 98103  4
103104  1
103105  4
 93105  4
105106  1
 78107  1
  2107  1
107108  1
107109  1
 36110  1
 78111  1
M  END
$$$$
