
 OpenBabel09252516123D

 80 84  0  0  0  0  0  0  0  0999 V2000
    0.9548    0.0663   -0.0597 Cl  0  0  0  0  0  0  0  0  0  0  0  0
    3.4348    0.0663   -0.0597 Ru  0  0  0  0  0  0  0  0  0  0  0  0
    3.0136    0.7684    0.9494 C   0  0  0  0  0  0  0  0  0  0  0  0
    2.5126    0.0977    2.1493 C   0  0  0  0  0  0  0  0  0  0  0  0
    2.0509    0.8146    3.2551 C   0  0  0  0  0  0  0  0  0  0  0  0
    1.5859    0.1431    4.3508 C   0  0  0  0  0  0  0  0  0  0  0  0
    1.5770   -1.2455    4.3849 C   0  0  0  0  0  0  0  0  0  0  0  0
    2.0272   -1.9788    3.3092 C   0  0  0  0  0  0  0  0  0  0  0  0
    2.5005   -1.3150    2.1781 C   0  0  0  0  0  0  0  0  0  0  0  0
    2.9926   -2.0391    0.9995 C   0  0  0  0  0  0  0  0  0  0  0  0
    4.2314   -2.7627    1.5017 C   0  0  0  0  0  0  0  0  0  0  0  0
    3.4348   -1.3289   -0.0597 N   0  0  0  0  0  0  0  0  0  0  0  0
    4.5656   -1.3021   -0.9987 C   0  0  0  0  0  0  0  0  0  0  0  0
    4.8712   -1.6413   -0.0676 C   0  0  0  0  0  0  0  0  0  0  0  0
    4.6748    0.0663    2.0880 Cl  0  0  0  0  0  0  0  0  0  0  0  0
    4.5448    0.0663   -1.9823 C   0  0  0  0  0  3  0  0  0  0  0  0
    5.8489   -0.7601   -1.8624 N   0  0  0  0  0  0  0  0  0  0  0  0
    6.1449   -1.1431   -3.3368 C   0  0  0  0  0  0  0  0  0  0  0  0
    4.7536   -1.4240   -3.9422 C   0  0  0  0  0  0  0  0  0  0  0  0
    3.7365   -0.6550   -3.0807 N   0  0  0  0  0  0  0  0  0  0  0  0
    2.2790   -0.6153   -3.2678 C   0  0  0  0  0  0  0  0  0  0  0  0
    1.5360   -1.7776   -3.2146 C   0  0  0  0  0  0  0  0  0  0  0  0
    2.2331   -3.1042   -2.9606 C   0  0  0  0  0  0  0  0  0  0  0  0
    0.2232   -1.7497   -3.3824 C   0  0  0  0  0  0  0  0  0  0  0  0
   -0.4237   -0.6168   -3.5996 C   0  0  0  0  0  0  0  0  0  0  0  0
   -1.9329   -0.6362   -3.7791 C   0  0  0  0  0  0  0  0  0  0  0  0
    0.2562    0.5840   -3.6653 C   0  0  0  0  0  0  0  0  0  0  0  0
    1.6335    0.5907   -3.5000 C   0  0  0  0  0  0  0  0  0  0  0  0
    2.4182    1.8905   -3.5716 C   0  0  0  0  0  0  0  0  0  0  0  0
    6.6149   -1.0974   -0.6539 C   0  0  0  0  0  0  0  0  0  0  0  0
    7.9138   -0.6584   -0.4927 C   0  0  0  0  0  0  0  0  0  0  0  0
    8.5802    0.1402   -1.6012 C   0  0  0  0  0  0  0  0  0  0  0  0
    8.5854   -0.9251    0.6164 C   0  0  0  0  0  0  0  0  0  0  0  0
    8.0417   -1.6112    1.6077 C   0  0  0  0  0  0  0  0  0  0  0  0
    8.8519   -1.8857    2.8641 C   0  0  0  0  0  0  0  0  0  0  0  0
    6.7461   -2.0815    1.5146 C   0  0  0  0  0  0  0  0  0  0  0  0
    6.0152   -1.8254    0.3636 C   0  0  0  0  0  0  0  0  0  0  0  0
    4.5890   -2.3311    0.2204 C   0  0  0  0  0  0  0  0  0  0  0  0
    3.0332    1.8372    0.9028 H   0  0  0  0  0  0  0  0  0  0  0  0
    2.0612    1.8845    3.2447 H   0  0  0  0  0  0  0  0  0  0  0  0
    1.2239    0.6943    5.1934 H   0  0  0  0  0  0  0  0  0  0  0  0
    1.2166   -1.7511    5.2563 H   0  0  0  0  0  0  0  0  0  0  0  0
    2.0137   -3.0483    3.3413 H   0  0  0  0  0  0  0  0  0  0  0  0
    2.1910   -2.6568    0.6520 H   0  0  0  0  0  0  0  0  0  0  0  0
    3.9672   -3.3927    2.3252 H   0  0  0  0  0  0  0  0  0  0  0  0
    4.6403   -3.3593    0.7131 H   0  0  0  0  0  0  0  0  0  0  0  0
    4.9588   -2.0456    1.8203 H   0  0  0  0  0  0  0  0  0  0  0  0
    2.8644   -1.6156   -0.8553 H   0  0  0  0  0  0  0  0  0  0  0  0
    5.3248   -0.6478   -0.6240 H   0  0  0  0  0  0  0  0  0  0  0  0
    4.9653   -2.2890   -1.1039 H   0  0  0  0  0  0  0  0  0  0  0  0
    4.2296   -0.9498   -1.9516 H   0  0  0  0  0  0  0  0  0  0  0  0
    5.0055   -2.7011   -0.1277 H   0  0  0  0  0  0  0  0  0  0  0  0
    5.3331   -1.1748   -0.9125 H   0  0  0  0  0  0  0  0  0  0  0  0
    5.3207   -1.2753    0.8318 H   0  0  0  0  0  0  0  0  0  0  0  0
    6.8039   -1.9823   -3.4177 H   0  0  0  0  0  0  0  0  0  0  0  0
    6.6258   -0.3362   -3.8493 H   0  0  0  0  0  0  0  0  0  0  0  0
    4.5398   -2.4724   -3.9485 H   0  0  0  0  0  0  0  0  0  0  0  0
    4.7150   -1.0798   -4.9546 H   0  0  0  0  0  0  0  0  0  0  0  0
    1.8451   -3.5455   -2.0663 H   0  0  0  0  0  0  0  0  0  0  0  0
    2.0604   -3.7619   -3.7868 H   0  0  0  0  0  0  0  0  0  0  0  0
    3.2845   -2.9392   -2.8497 H   0  0  0  0  0  0  0  0  0  0  0  0
   -0.3279   -2.6659   -3.3413 H   0  0  0  0  0  0  0  0  0  0  0  0
   -2.1842   -1.2473   -4.6207 H   0  0  0  0  0  0  0  0  0  0  0  0
   -2.3917   -1.0356   -2.8987 H   0  0  0  0  0  0  0  0  0  0  0  0
   -2.2853    0.3605   -3.9441 H   0  0  0  0  0  0  0  0  0  0  0  0
   -0.2728    1.4972   -3.8415 H   0  0  0  0  0  0  0  0  0  0  0  0
    2.2784    2.3390   -4.5330 H   0  0  0  0  0  0  0  0  0  0  0  0
    2.0707    2.5592   -2.8121 H   0  0  0  0  0  0  0  0  0  0  0  0
    3.4580    1.6883   -3.4203 H   0  0  0  0  0  0  0  0  0  0  0  0
    8.8621    1.1024   -1.2276 H   0  0  0  0  0  0  0  0  0  0  0  0
    9.4515   -0.3797   -1.9410 H   0  0  0  0  0  0  0  0  0  0  0  0
    7.8962    0.2599   -2.4152 H   0  0  0  0  0  0  0  0  0  0  0  0
    9.5926   -0.5771    0.7132 H   0  0  0  0  0  0  0  0  0  0  0  0
    9.7283   -2.4438    2.6086 H   0  0  0  0  0  0  0  0  0  0  0  0
    9.1384   -0.9578    3.3136 H   0  0  0  0  0  0  0  0  0  0  0  0
    8.2594   -2.4486    3.5547 H   0  0  0  0  0  0  0  0  0  0  0  0
    6.3118   -2.6362    2.3200 H   0  0  0  0  0  0  0  0  0  0  0  0
    4.5804   -3.3987    0.2912 H   0  0  0  0  0  0  0  0  0  0  0  0
    3.9838   -1.9171    0.9997 H   0  0  0  0  0  0  0  0  0  0  0  0
    4.1988   -2.0335   -0.7304 H   0  0  0  0  0  0  0  0  0  0  0  0
  1  2  1  0  0  0  0
  2  3  2  0  0  0  0
  2 12  1  0  0  0  0
  2 15  1  0  0  0  0
  2 16  1  0  0  0  0
  3  4  1  0  0  0  0
  3 39  1  0  0  0  0
  4  5  1  0  0  0  0
  4  9  2  0  0  0  0
  5  6  2  0  0  0  0
  5 40  1  0  0  0  0
  6  7  1  0  0  0  0
  6 41  1  0  0  0  0
  7  8  2  0  0  0  0
  7 42  1  0  0  0  0
  8  9  1  0  0  0  0
  8 43  1  0  0  0  0
  9 10  1  0  0  0  0
 10 11  1  0  0  0  0
 10 12  1  0  0  0  0
 10 44  1  0  0  0  0
 11 45  1  0  0  0  0
 11 46  1  0  0  0  0
 11 47  1  0  0  0  0
 12 13  1  0  0  0  0
 12 14  1  0  0  0  0
 12 48  1  0  0  0  0
 13 49  1  0  0  0  0
 13 50  1  0  0  0  0
 13 51  1  0  0  0  0
 14 52  1  0  0  0  0
 14 53  1  0  0  0  0
 14 54  1  0  0  0  0
 16 17  1  0  0  0  0
 16 20  1  0  0  0  0
 17 18  1  0  0  0  0
 17 30  1  0  0  0  0
 18 19  1  0  0  0  0
 18 55  1  0  0  0  0
 18 56  1  0  0  0  0
 19 20  1  0  0  0  0
 19 57  1  0  0  0  0
 19 58  1  0  0  0  0
 20 21  1  0  0  0  0
 21 22  1  0  0  0  0
 21 28  2  0  0  0  0
 22 23  1  0  0  0  0
 22 24  2  0  0  0  0
 23 59  1  0  0  0  0
 23 60  1  0  0  0  0
 23 61  1  0  0  0  0
 24 25  1  0  0  0  0
 24 62  1  0  0  0  0
 25 26  1  0  0  0  0
 25 27  2  0  0  0  0
 26 63  1  0  0  0  0
 26 64  1  0  0  0  0
 26 65  1  0  0  0  0
 27 28  1  0  0  0  0
 27 66  1  0  0  0  0
 28 29  1  0  0  0  0
 29 67  1  0  0  0  0
 29 68  1  0  0  0  0
 29 69  1  0  0  0  0
 30 31  1  0  0  0  0
 30 37  2  0  0  0  0
 31 32  1  0  0  0  0
 31 33  2  0  0  0  0
 32 70  1  0  0  0  0
 32 71  1  0  0  0  0
 32 72  1  0  0  0  0
 33 34  1  0  0  0  0
 33 73  1  0  0  0  0
 34 35  1  0  0  0  0
 34 36  2  0  0  0  0
 35 74  1  0  0  0  0
 35 75  1  0  0  0  0
 35 76  1  0  0  0  0
 36 37  1  0  0  0  0
 36 77  1  0  0  0  0
 37 38  1  0  0  0  0
 38 78  1  0  0  0  0
 38 79  1  0  0  0  0
 38 80  1  0  0  0  0
M  END
$$$$
