
  --CCDC--092525    3D                              

 80 84  0  0  0  0  0  0  0  0999 V2000
    1.5778    0.1416   -0.3197 Cl     0
    1.3983    2.5870   -0.3401 Ru     0
    0.6192    3.5511    1.4011 C      0
   -0.8628    3.8027    1.5761 C      0
   -1.3555    3.9965    2.8741 C      0
   -2.7156    4.0649    3.1243 C      0
   -3.6088    3.9416    2.0830 C      0
   -3.1448    3.7498    0.7922 C      0
   -1.7836    3.6777    0.5141 C      0
   -1.3592    3.5841   -0.9425 C      0
   -0.6095    4.8555   -1.2869 C      0
   -0.5717    2.4214   -1.1709 N      0
   -1.2369    1.3258   -0.5554 C      0
   -0.4705    2.1683   -2.5674 C      0
    2.1657    3.8601   -2.2938 Cl     0
    3.3656    2.7490    0.4845 C      0
    4.2932    3.4067   -0.4359 N      0
    5.5012    2.6335   -0.6573 C      0
    5.2236    1.2741   -0.0369 C      0
    4.0267    1.4860    0.7615 N      0
    3.6158    0.5969    1.8405 C      0
    3.2366    1.0969    3.1081 C      0
    3.5063    2.4769    3.6539 C      0
    2.5839    0.2490    3.9980 C      0
    2.3610   -1.0874    3.7366 C      0
    1.6102   -1.9672    4.7061 C      0
    2.9021   -1.5934    2.5727 C      0
    3.5773   -0.8019    1.6490 C      0
    4.2849   -1.5723    0.5636 C      0
    4.3208    4.8420   -0.5728 C      0
    4.5321    5.3809   -1.8492 C      0
    4.7121    4.5300   -3.0794 C      0
    4.5336    6.7644   -1.9963 C      0
    4.3322    7.6224   -0.9295 C      0
    4.3355    9.1194   -1.1209 C      0
    4.1506    7.0616    0.3228 C      0
    4.1534    5.6861    0.5367 C      0
    4.0432    5.2034    1.9600 C      0
    1.3067    3.8877    2.1692 H      0
   -0.6548    4.0951    3.7018 H      0
   -3.0776    4.2155    4.1402 H      0
   -4.6795    3.9949    2.2746 H      0
   -3.8609    3.6533   -0.0226 H      0
   -2.2679    3.5146   -1.5497 H      0
   -1.2795    5.7102   -1.2219 H      0
   -0.2021    4.8354   -2.2948 H      0
    0.2007    5.0283   -0.5840 H      0
   -0.9864    1.2444    0.4997 H      0
   -0.9759    0.3902   -1.0453 H      0
   -2.3153    1.4491   -0.6302 H      0
   -1.4167    1.8008   -2.9592 H      0
    0.2888    1.4154   -2.7662 H      0
   -0.2029    3.0654   -3.1194 H      0
    6.3527    3.1081   -0.1719 H      0
    5.7004    2.5333   -1.7232 H      0
    6.0559    0.9583    0.5904 H      0
    5.0463    0.5261   -0.8083 H      0
    2.7727    3.1923    3.2893 H      0
    4.4969    2.8218    3.3665 H      0
    3.4569    2.4724    4.7408 H      0
    2.2404    0.6559    4.9434 H      0
    1.7350   -1.6109    5.7265 H      0
    1.9735   -2.9917    4.6581 H      0
    0.5466   -1.9737    4.4770 H      0
    2.8124   -2.6570    2.3781 H      0
    5.3227   -1.2592    0.4929 H      0
    3.8094   -1.4460   -0.4053 H      0
    4.2790   -2.6353    0.7952 H      0
    5.7278    4.6126   -3.4604 H      0
    4.0283    4.8403   -3.8667 H      0
    4.5184    3.4835   -2.8549 H      0
    4.6919    7.1854   -2.9837 H      0
    4.9811    9.4008   -1.9502 H      0
    4.6956    9.6219   -0.2255 H      0
    3.3325    9.4833   -1.3336 H      0
    4.0098    7.7206    1.1731 H      0
    4.6670    4.3263    2.1191 H      0
    3.0158    4.9364    2.1982 H      0
    4.3623    5.9769    2.6554 H      0
    3.3141    3.3281    1.4053 H      0
  1  2  1
  2  3  2
  3  4  1
  4  5  4
  5  6  4
  6  7  4
  7  8  4
  8  9  4
  4  9  4
  9 10  1
 10 11  1
 10 12  1
  2 12  1
 12 13  1
 12 14  1
  2 15  1
  2 16  1
 16 17  1
 17 18  1
 18 19  1
 19 20  1
 16 20  1
 20 21  1
 21 22  4
 22 23  1
 22 24  4
 24 25  4
 25 26  1
 25 27  4
 27 28  4
 21 28  4
 28 29  1
 17 30  1
 30 31  4
 31 32  1
 31 33  4
 33 34  4
 34 35  1
 34 36  4
 36 37  4
 30 37  4
 37 38  1
  3 39  1
  5 40  1
  6 41  1
  7 42  1
  8 43  1
 10 44  1
 11 45  1
 11 46  1
 11 47  1
 13 48  1
 13 49  1
 13 50  1
 14 51  1
 14 52  1
 14 53  1
 18 54  1
 18 55  1
 19 56  1
 19 57  1
 23 58  1
 23 59  1
 23 60  1
 24 61  1
 26 62  1
 26 63  1
 26 64  1
 27 65  1
 29 66  1
 29 67  1
 29 68  1
 32 69  1
 32 70  1
 32 71  1
 33 72  1
 35 73  1
 35 74  1
 35 75  1
 36 76  1
 38 77  1
 38 78  1
 38 79  1
 16 80  1
M  END
$$$$
