
  --CCDC--092525    3D                              

114121  0  0  0  0  0  0  0  0999 V2000
    0.5219   -0.0426    0.0517 H      0
    0.9818    0.9393    0.1086 C      0
    1.1761    1.6811   -1.0391 C      0
    0.8521    1.2814   -1.9934 H      0
    1.7766    2.9338   -0.9983 C      0
    1.9296    3.6658   -2.3264 C      0
    2.3473    4.6679   -2.1514 H      0
    2.8418    2.9115   -3.2971 C      0
    2.6366    3.2041   -4.3254 H      0
    2.6872    1.8379   -3.2159 H      0
    3.8906    3.1165   -3.1050 H      0
    0.5735    3.8280   -3.0120 C      0
    0.1043    2.8596   -3.1755 H      0
    0.6883    4.3134   -3.9798 H      0
   -0.0962    4.4348   -2.4068 H      0
    2.1873    3.4390    0.2563 C      0
    2.8798    4.6859    0.2293 N      0
    4.1754    4.7120   -0.3701 C      0
    4.7977    5.9239   -0.6326 C      0
    6.0765    5.6769   -1.3117 C      0
    7.1203    6.3989   -1.8435 C      0
    7.1282    7.4815   -1.7612 H      0
    8.1597    5.7404   -2.4935 C      0
    8.9606    6.3286   -2.9297 H      0
    8.2117    4.3789   -2.6069 C      0
    9.0382    3.9114   -3.1303 H      0
    7.1903    3.5845   -2.0371 C      0
    7.1274    2.1708   -2.0264 C      0
    7.9143    1.5880   -2.4910 H      0
    6.0792    1.5373   -1.4179 C      0
    6.0606    0.4516   -1.4028 H      0
    5.0360    2.2371   -0.8207 C      0
    4.2207    1.6987   -0.3486 H      0
    5.0312    3.6134   -0.8331 C      0
    6.1311    4.2721   -1.4137 C      0
    4.1468    7.1394   -0.2658 N      0
    4.7310    8.4295   -0.4774 C      0
    4.2550    9.3121   -1.4761 C      0
    3.5070    8.9412   -2.7528 C      0
    3.3342    7.8534   -2.7789 H      0
    4.1903    9.3737   -4.0510 C      0
    5.0833    8.7834   -4.2347 H      0
    4.4865   10.4198   -4.0068 H      0
    3.5204    9.2452   -4.9008 H      0
    2.1502    9.6501   -2.7214 C      0
    1.5656    9.4160   -3.6081 H      0
    2.2819   10.7306   -2.6852 H      0
    1.5669    9.3544   -1.8516 H      0
    4.6039   10.6562   -1.3627 C      0
    4.1624   11.3732   -2.0439 H      0
    5.5407   11.0978   -0.4511 C      0
    5.7997   12.1518   -0.3925 H      0
    6.1813   10.1731    0.3468 C      0
    6.9871   10.4992    0.9931 H      0
    5.8080    8.8314    0.3480 C      0
    6.6014    7.9032    1.2556 C      0
    6.1861    6.8894    1.1985 H      0
    6.5370    8.3550    2.7140 C      0
    5.5720    8.7938    2.9359 H      0
    7.3003    9.1009    2.9275 H      0
    6.6877    7.5069    3.3841 H      0
    8.0681    7.8580    0.8239 C      0
    8.1811    8.2302   -0.1912 H      0
    8.4574    6.8424    0.8651 H      0
    8.6756    8.4779    1.4806 H      0
    1.8173    7.0003    1.0077 Eu     0
    0.6199    7.2125   -1.3610 N      0
    0.0074    7.3298   -2.5435 C      0
   -0.7759    7.4798   -4.0557 S      0
    0.3285    5.1558    2.2015 O      0
   -0.6462    4.4662    1.4544 C      0
   -1.3702    5.1543    1.0277 H      0
   -1.1850    3.7610    2.0816 H      0
   -0.2085    3.9120    0.6307 H      0
   -0.2327    5.7035    3.3717 C      0
   -0.7619    4.9391    3.9565 H      0
    0.5596    6.1098    4.0110 H      0
   -1.1675    6.8057    2.9659 C      0
   -2.0734    6.3799    2.5190 H      0
   -1.4851    7.3691    3.8538 H      0
   -0.5413    7.6689    2.0359 O      0
   -0.8406    9.0152    2.3067 C      0
   -0.7411    9.6238    1.4095 H      0
   -0.1723    9.4144    3.0673 H      0
   -1.8614    9.1141    2.6748 H      0
    3.1449    7.7564    3.1683 O      0
    3.3360    6.9146    4.2752 C      0
    3.5552    5.8970    3.9534 H      0
    2.4464    6.8830    4.8973 H      0
    4.1652    7.2646    4.8886 H      0
    2.8281    9.0997    3.4878 C      0
    1.7819    9.1640    3.8102 H      0
    3.4401    9.4373    4.3325 H      0
    3.0447   10.0053    2.2923 C      0
    2.8186   11.0463    2.5533 H      0
    4.1021    9.9772    2.0004 H      0
    2.2139    9.5992    1.2202 O      0
    1.5821   10.5456    0.3954 C      0
    0.6739   10.1209   -0.0311 H      0
    2.2305   10.8441   -0.4282 H      0
    1.3006   11.4381    0.9542 H      0
    1.9810    2.7027    1.4432 C      0
    2.4049    3.1634    2.8278 C      0
    2.6397    4.2379    2.7894 H      0
    3.6480    2.3985    3.2776 C      0
    4.4775    2.5732    2.5954 H      0
    3.9547    2.7057    4.2757 H      0
    3.4469    1.3293    3.2987 H      0
    1.2924    2.9345    3.8550 C      0
    1.4215    1.9816    4.3660 H      0
    0.3139    2.9283    3.3798 H      0
    1.2964    3.7165    4.6113 H      0
    1.3736    1.4516    1.3307 C      0
    1.2077    0.8480    2.2158 H      0
  1  2  1
  2  3  4
  3  4  1
  3  5  4
  5  6  1
  6  7  1
  6  8  1
  8  9  1
  8 10  1
  8 11  1
  6 12  1
 12 13  1
 12 14  1
 12 15  1
  5 16  4
 16 17  1
 17 18  1
 18 19  2
 19 20  1
 20 21  4
 21 22  1
 21 23  4
 23 24  1
 23 25  4
 25 26  1
 25 27  4
 27 28  4
 28 29  1
 28 30  4
 30 31  1
 30 32  4
 32 33  1
 32 34  4
 18 34  1
 34 35  4
 20 35  4
 27 35  4
 19 36  1
 36 37  1
 37 38  4
 38 39  1
 39 40  1
 39 41  1
 41 42  1
 41 43  1
 41 44  1
 39 45  1
 45 46  1
 45 47  1
 45 48  1
 38 49  4
 49 50  1
 49 51  4
 51 52  1
 51 53  4
 53 54  1
 53 55  4
 37 55  4
 55 56  1
 56 57  1
 56 58  1
 58 59  1
 58 60  1
 58 61  1
 56 62  1
 62 63  1
 62 64  1
 62 65  1
 36 66  1
 17 66  1
 66 67  1
 67 68  4
 68 69  4
 66 70  1
 70 71  1
 71 72  1
 71 73  1
 71 74  1
 70 75  1
 75 76  1
 75 77  1
 75 78  1
 78 79  1
 78 80  1
 78 81  1
 66 81  1
 81 82  1
 82 83  1
 82 84  1
 82 85  1
 66 86  1
 86 87  1
 87 88  1
 87 89  1
 87 90  1
 86 91  1
 91 92  1
 91 93  1
 91 94  1
 94 95  1
 94 96  1
 94 97  1
 66 97  1
 97 98  1
 98 99  1
 98100  1
 98101  1
 16102  4
102103  1
103104  1
103105  1
105106  1
105107  1
105108  1
103109  1
109110  1
109111  1
109112  1
102113  4
  2113  4
113114  1
M  END
$$$$
