
  --CCDC--092525    3D                              

 76 82  0  0  0  0  0  0  0  0999 V2000
    1.1768   -4.9858    5.1459 H      0
    0.6534   -4.7837    4.2172 C      0
    0.1346   -5.8218    3.4759 C      0
    0.2448   -6.8430    3.8253 H      0
   -0.5301   -5.5674    2.2880 C      0
   -0.9504   -6.3951    1.7270 H      0
   -0.6727   -4.2623    1.8077 C      0
   -1.5618   -3.9012    0.2667 P      0
   -3.0310   -4.4997    1.1791 C      0
   -3.9429   -5.3360    0.5213 C      0
   -3.7858   -5.5901   -0.5213 H      0
   -5.0545   -5.8604    1.1593 C      0
   -5.7366   -6.5030    0.6124 H      0
   -5.2986   -5.5736    2.4812 C      0
   -6.1682   -5.9870    2.9812 H      0
   -4.4283   -4.7555    3.1617 C      0
   -4.6146   -4.5214    4.2046 H      0
   -3.3174   -4.2249    2.5270 C      0
   -2.6740   -3.5709    3.1053 H      0
   -0.1930   -4.8483   -0.4227 C      0
   -0.1296   -6.2159   -0.6989 C      0
   -1.0219   -6.8297   -0.6327 H      0
    1.0896   -6.7882   -1.0248 C      0
    1.1467   -7.8513   -1.2343 H      0
    2.2342   -6.0196   -1.0674 C      0
    3.1888   -6.4855   -1.2886 H      0
    2.1698   -4.6536   -0.8452 C      0
    3.0672   -4.0469   -0.9073 H      0
    0.9380   -4.0601   -0.5755 C      0
    0.6026   -2.5838   -0.4926 C      0
    1.5041   -1.6607   -0.4186 N      0
    0.6752   -0.5602   -0.6246 C      0
    0.8490    0.3553   -1.6669 C      0
    1.7729    0.3613   -2.2357 H      0
   -0.1987    1.2158   -2.0242 C      0
   -0.0380    1.9036   -2.8477 H      0
   -1.4468    1.2118   -1.4047 C      0
   -2.2468    1.8509   -1.7636 H      0
   -1.6212    0.4248   -0.2921 C      0
   -2.4049    0.6187    0.4105 H      0
   -0.4369   -0.0953    0.0033 C      0
   -0.6007   -0.5863    0.8891 H      0
   -1.1196   -1.6994   -0.4009 Co     0
   -3.4697   -1.5588   -0.2187 P      0
   -3.2666   -1.3711    1.5768 C      0
   -2.3456   -1.8421    1.9021 H      0
   -4.1034   -1.8234    2.1051 H      0
   -3.2102   -0.3374    1.9016 H      0
   -4.1244   -2.7879   -1.3775 C      0
   -5.0890   -3.1400   -1.0180 H      0
   -3.4923   -3.6524   -1.4996 H      0
   -4.2999   -2.3938   -2.3684 H      0
   -4.4013   -0.0715   -0.6965 C      0
   -3.9065    0.4971   -1.4777 H      0
   -4.5243    0.5916    0.1568 H      0
   -5.3957   -0.3407   -1.0467 H      0
   -1.2546   -1.8730   -2.7389 P      0
    0.4024   -2.4142   -3.2370 C      0
    0.5773   -3.4523   -2.9765 H      0
    1.1983   -1.8119   -2.8121 H      0
    0.4917   -2.3526   -4.3196 H      0
   -1.7920   -3.4845   -3.3766 C      0
   -1.3514   -3.6553   -4.3566 H      0
   -2.8627   -3.5868   -3.4934 H      0
   -1.4519   -4.2839   -2.7218 H      0
   -2.5053   -0.7945   -3.4900 C      0
   -2.7591   -1.1702   -4.4790 H      0
   -2.1310    0.2136   -3.6353 H      0
   -3.4225   -0.7303   -2.9231 H      0
   -0.1612   -3.2243    2.5898 C      0
   -0.2801   -2.1954    2.2694 H      0
    0.5008   -3.4875    3.7775 C      0
    0.9005   -2.6678    4.3654 H      0
   -2.0835   -4.6860   -0.7642 H      0
   -4.2262   -2.4749    0.5164 H      0
   -0.5430   -0.8809   -3.4213 H      0
  1  2  1
  2  3  4
  3  4  1
  3  5  4
  5  6  1
  5  7  4
  7  8  1
  8  9  1
  9 10  4
 10 11  1
 10 12  4
 12 13  1
 12 14  4
 14 15  1
 14 16  4
 16 17  1
 16 18  4
  9 18  4
 18 19  1
  8 20  1
 20 21  4
 21 22  1
 21 23  4
 23 24  1
 23 25  4
 25 26  1
 25 27  4
 27 28  1
 27 29  4
 20 29  4
 29 30  1
 30 31  2
 31 32  1
 32 33  4
 33 34  1
 33 35  4
 35 36  1
 35 37  4
 37 38  1
 37 39  4
 39 40  1
 39 41  4
 32 41  4
 41 42  1
 42 43  1
 30 43  1
 41 43  1
  8 43  1
 43 44  1
 44 45  1
 45 46  1
 45 47  1
 45 48  1
 44 49  1
 49 50  1
 49 51  1
 49 52  1
 44 53  1
 53 54  1
 53 55  1
 53 56  1
 43 57  1
 57 58  1
 58 59  1
 58 60  1
 58 61  1
 57 62  1
 62 63  1
 62 64  1
 62 65  1
 57 66  1
 66 67  1
 66 68  1
 66 69  1
  7 70  4
 70 71  1
 70 72  4
  2 72  4
 72 73  1
  8 74  1
 44 75  1
 57 76  1
M  END
$$$$
