
 OpenBabel09252518113D

 73 85  0  0  0  0  0  0  0  0999 V2000
    1.0551   -0.0309   -0.0775 Cl  0  0  0  0  0  0  0  0  0  0  0  0
    3.8251   -0.0309   -0.0775 Zr  0  0  0  0  0  0  0  0  0  0  0  0
    5.4667    1.8289   -1.3101 Cl  0  0  0  0  0  0  0  0  0  0  0  0
    4.0862    2.5786    1.9803 C   0  0  0  0  0  0  0  0  0  0  0  0
    7.0469   -0.2254    1.2843 C   0  0  0  0  0  0  0  0  0  0  0  0
    5.7892   -0.7418    1.2381 C   0  0  0  0  0  0  0  0  0  0  0  0
    6.9552   -1.1499    0.6759 C   0  0  0  0  0  0  0  0  0  0  0  0
    7.4960   -0.4725   -0.3916 C   0  0  0  0  0  0  0  0  0  0  0  0
    7.0807    0.8089   -0.6759 C   0  0  0  0  0  0  0  0  0  0  0  0
    5.9202    1.2934   -0.1602 C   0  0  0  0  0  0  0  0  0  0  0  0
    5.0387    0.4534    0.7232 C   0  0  0  0  0  0  0  0  0  0  0  0
    4.5537    1.3035    1.9015 C   0  0  0  0  0  0  0  0  0  0  0  0
    3.6551    0.4581    2.8047 Si  0  0  0  0  0  0  0  0  0  0  0  0
    3.0707    1.4935    4.2481 C   0  0  0  0  0  0  0  0  0  0  0  0
    4.6186   -1.0123    3.4424 C   0  0  0  0  0  0  0  0  0  0  0  0
    2.4454   -0.0323    2.0054 Si  0  0  0  0  0  0  0  0  0  0  0  0
    1.3462   -1.0680    3.1081 C   0  0  0  0  0  0  0  0  0  0  0  0
    1.4802    1.4378    1.3695 C   0  0  0  0  0  0  0  0  0  0  0  0
    2.9256   -0.8773    0.8239 C   0  0  0  0  0  0  0  0  0  0  0  0
    4.3939   -2.9732   -2.5691 C   0  0  0  0  0  3  0  0  0  0  0  0
    3.8625   -2.2208   -1.3599 C   0  0  0  0  0  0  0  0  0  0  0  0
    3.0669   -2.8573   -0.4585 C   0  0  0  0  0  0  0  0  0  0  0  0
    2.7600   -4.1401   -0.6456 C   0  0  0  0  0  0  0  0  0  0  0  0
    1.9866   -4.7852    0.2171 C   0  0  0  0  0  0  0  0  0  0  0  0
    1.4835   -4.1045    1.3458 C   0  0  0  0  0  0  0  0  0  0  0  0
    1.8089   -2.8033    1.5253 C   0  0  0  0  0  0  0  0  0  0  0  0
    2.6022   -2.1810    0.6085 C   0  0  0  0  0  0  0  0  0  0  0  0
    4.3024   -0.4204   -1.1115 Si  0  0  0  0  0  0  0  0  0  0  0  0
    2.7391    0.6054   -1.0853 C   0  0  0  0  0  0  0  0  0  0  0  0
    5.2079   -0.2182    0.5121 C   0  0  0  0  0  0  0  0  0  0  0  0
    5.4002    0.1522   -2.5130 C   0  0  0  0  0  0  0  0  0  0  0  0
    7.3832    1.3312    2.2645 Si  0  0  0  0  0  0  0  0  0  0  0  0
    6.3448    2.7310    1.5870 C   0  0  0  0  0  0  0  0  0  0  0  0
    6.9467    1.0437    4.0600 C   0  0  0  0  0  0  0  0  0  0  0  0
    9.1945    1.7754    2.1268 C   0  0  0  0  0  0  0  0  0  0  0  0
    7.4594   -2.0084    1.0678 H   0  0  0  0  0  0  0  0  0  0  0  0
    8.2397   -0.9414   -1.0014 H   0  0  0  0  0  0  0  0  0  0  0  0
    7.6782    1.4303   -1.3098 H   0  0  0  0  0  0  0  0  0  0  0  0
    5.6264    2.2967   -0.3881 H   0  0  0  0  0  0  0  0  0  0  0  0
    2.4419    0.9018    4.8801 H   0  0  0  0  0  0  0  0  0  0  0  0
    3.9165    1.8362    4.8068 H   0  0  0  0  0  0  0  0  0  0  0  0
    2.5194    2.3349    3.8834 H   0  0  0  0  0  0  0  0  0  0  0  0
    4.9530   -1.6049    2.6166 H   0  0  0  0  0  0  0  0  0  0  0  0
    5.4644   -0.6694    4.0010 H   0  0  0  0  0  0  0  0  0  0  0  0
    3.9898   -1.6038    4.0745 H   0  0  0  0  0  0  0  0  0  0  0  0
    1.0110   -0.4765    3.9344 H   0  0  0  0  0  0  0  0  0  0  0  0
    0.5010   -1.4107    2.5486 H   0  0  0  0  0  0  0  0  0  0  0  0
    1.8978   -1.9094    3.4724 H   0  0  0  0  0  0  0  0  0  0  0  0
    2.1087    2.0313    0.7389 H   0  0  0  0  0  0  0  0  0  0  0  0
    0.6353    1.0947    0.8098 H   0  0  0  0  0  0  0  0  0  0  0  0
    1.1445    2.0286    2.1961 H   0  0  0  0  0  0  0  0  0  0  0  0
    3.1420   -4.6558   -1.5018 H   0  0  0  0  0  0  0  0  0  0  0  0
    1.7456   -5.8155    0.0581 H   0  0  0  0  0  0  0  0  0  0  0  0
    0.8545   -4.6093    2.0489 H   0  0  0  0  0  0  0  0  0  0  0  0
    1.4470   -2.2684    2.3784 H   0  0  0  0  0  0  0  0  0  0  0  0
    2.1110    0.2778   -0.2834 H   0  0  0  0  0  0  0  0  0  0  0  0
    2.9908    1.6356   -0.9431 H   0  0  0  0  0  0  0  0  0  0  0  0
    2.2210    0.4897   -2.0143 H   0  0  0  0  0  0  0  0  0  0  0  0
    6.1025   -0.8051    0.4971 H   0  0  0  0  0  0  0  0  0  0  0  0
    5.4597    0.8120    0.6542 H   0  0  0  0  0  0  0  0  0  0  0  0
    4.5798   -0.5458    1.3140 H   0  0  0  0  0  0  0  0  0  0  0  0
    6.2947   -0.4348   -2.5280 H   0  0  0  0  0  0  0  0  0  0  0  0
    4.8821    0.0365   -3.4420 H   0  0  0  0  0  0  0  0  0  0  0  0
    5.6519    1.1824   -2.3708 H   0  0  0  0  0  0  0  0  0  0  0  0
    5.3085    2.4768    1.6658 H   0  0  0  0  0  0  0  0  0  0  0  0
    6.5373    3.6217    2.1478 H   0  0  0  0  0  0  0  0  0  0  0  0
    6.5946    2.8955    0.5596 H   0  0  0  0  0  0  0  0  0  0  0  0
    7.5408    0.2427    4.4477 H   0  0  0  0  0  0  0  0  0  0  0  0
    7.1391    1.9344    4.6209 H   0  0  0  0  0  0  0  0  0  0  0  0
    5.9103    0.7895    4.1388 H   0  0  0  0  0  0  0  0  0  0  0  0
    9.7886    0.9744    2.5145 H   0  0  0  0  0  0  0  0  0  0  0  0
    9.4443    1.9399    1.0995 H   0  0  0  0  0  0  0  0  0  0  0  0
    9.3869    2.6661    2.6877 H   0  0  0  0  0  0  0  0  0  0  0  0
  1  2  1  0  0  0  0
  2  3  1  0  0  0  0
  2  4  1  0  0  0  0
  2  5  1  0  0  0  0
  2  6  1  0  0  0  0
  2 11  1  0  0  0  0
  2 12  1  0  0  0  0
  2 19  1  0  0  0  0
  2 20  1  0  0  0  0
  2 21  1  0  0  0  0
  2 22  1  0  0  0  0
  2 27  1  0  0  0  0
  4  5  1  0  0  0  0
  4 12  2  0  0  0  0
  5  6  2  0  0  0  0
  5 32  1  0  0  0  0
  6  7  1  0  0  0  0
  6 11  1  0  0  0  0
  7  8  2  0  0  0  0
  7 36  1  0  0  0  0
  8  9  1  0  0  0  0
  8 37  1  0  0  0  0
  9 10  2  0  0  0  0
  9 38  1  0  0  0  0
 10 11  1  0  0  0  0
 10 39  1  0  0  0  0
 11 12  1  0  0  0  0
 12 13  1  0  0  0  0
 13 14  1  0  0  0  0
 13 15  1  0  0  0  0
 13 16  1  0  0  0  0
 14 40  1  0  0  0  0
 14 41  1  0  0  0  0
 14 42  1  0  0  0  0
 15 43  1  0  0  0  0
 15 44  1  0  0  0  0
 15 45  1  0  0  0  0
 16 17  1  0  0  0  0
 16 18  1  0  0  0  0
 16 19  1  0  0  0  0
 17 46  1  0  0  0  0
 17 47  1  0  0  0  0
 17 48  1  0  0  0  0
 18 49  1  0  0  0  0
 18 50  1  0  0  0  0
 18 51  1  0  0  0  0
 19 20  1  0  0  0  0
 19 27  2  0  0  0  0
 20 21  1  0  0  0  0
 21 22  2  0  0  0  0
 21 28  1  0  0  0  0
 22 23  1  0  0  0  0
 22 27  1  0  0  0  0
 23 24  2  0  0  0  0
 23 52  1  0  0  0  0
 24 25  1  0  0  0  0
 24 53  1  0  0  0  0
 25 26  2  0  0  0  0
 25 54  1  0  0  0  0
 26 27  1  0  0  0  0
 26 55  1  0  0  0  0
 28 29  1  0  0  0  0
 28 30  1  0  0  0  0
 28 31  1  0  0  0  0
 29 56  1  0  0  0  0
 29 57  1  0  0  0  0
 29 58  1  0  0  0  0
 30 59  1  0  0  0  0
 30 60  1  0  0  0  0
 30 61  1  0  0  0  0
 31 62  1  0  0  0  0
 31 63  1  0  0  0  0
 31 64  1  0  0  0  0
 32 33  1  0  0  0  0
 32 34  1  0  0  0  0
 32 35  1  0  0  0  0
 33 65  1  0  0  0  0
 33 66  1  0  0  0  0
 33 67  1  0  0  0  0
 34 68  1  0  0  0  0
 34 69  1  0  0  0  0
 34 70  1  0  0  0  0
 35 71  1  0  0  0  0
 35 72  1  0  0  0  0
 35 73  1  0  0  0  0
M  END
$$$$
