
  --CCDC--092525    3D                              

 26 29  0  0  0  0  0  0  0  0999 V2000
    1.3537   -2.2281    2.1827 H      0
    0.5214   -1.8091    1.6223 C      0
    0.9075   -1.1361    0.4278 C      0
    2.3431   -1.0112    0.1217 C      0
    2.7798   -0.4656   -0.8899 O      0
    3.2888   -1.4762    1.1866 C      0
    2.9702   -1.0823    2.1455 H      0
    3.2551   -2.5566    1.2509 H      0
    4.3177   -1.1652    1.0153 H      0
   -0.1213   -0.4092   -0.4155 C      0
   -0.3676   -0.4169   -1.4865 H      0
   -0.8679   -0.1822    0.8664 C      0
   -0.8250   -0.7135    1.9463 H      0
   -2.3223   -0.6357    1.0306 C      0
   -2.9060   -0.7506    0.0881 H      0
   -2.1085   -1.8772    1.8885 C      0
   -2.5860   -2.8268    1.5449 H      0
   -0.7085   -2.0849    2.3105 N      0
   -0.6139   -2.6373    3.1682 H      0
   -1.2426   -2.1229    0.0289 Fe     0
   -0.0265   -3.0745   -1.5351 C      0
    0.6015   -3.5660   -2.3427 O      0
   -2.6823   -3.0726   -1.3340 C      0
   -3.4350   -3.5268   -2.0556 O      0
   -0.6643   -4.1813    0.5647 C      0
   -0.3326   -5.2247    0.8778 O      0
  1  2  1
  2  3  2
  3  4  1
  4  5  2
  4  6  1
  6  7  1
  6  8  1
  6  9  1
  3 10  1
 10 11  1
 10 12  2
 12 13  1
 12 14  1
 14 15  1
 14 16  2
 16 17  1
 16 18  1
  2 18  1
 18 19  1
 16 20  1
 14 20  1
 12 20  1
 10 20  1
 20 21  1
 21 22  3
 20 23  1
 23 24  3
 20 25  1
 25 26  3
M  END
$$$$
