
  --CCDC--092525    3D                              

 80 84  0  0  0  0  0  0  0  0999 V2000
   -0.0493   -0.0167   -0.2589 Cl     0
    0.9882    2.1944   -0.0550 Ru     0
    0.5717    3.4064    1.6512 C      0
    1.6044    3.6007    2.7396 C      0
    1.1771    4.3011    3.8802 C      0
    2.0247    4.5297    4.9461 C      0
    3.3155    4.0618    4.8906 C      0
    3.7621    3.3684    3.7779 C      0
    2.9312    3.1163    2.6754 C      0
    3.4924    2.4057    1.4397 C      0
    4.9274    1.9173    1.6465 C      0
    2.6502    1.3386    0.9849 N      0
    3.2940    0.4666    0.0628 C      0
    2.1927    0.5174    2.0527 C      0
    2.5212    2.9957   -1.7902 Cl     0
   -0.6772    3.0525   -1.0974 C      0
   -0.8902    2.4245   -2.4015 N      0
   -0.9609    3.3915   -3.4812 C      0
   -0.5136    4.7079   -2.8673 C      0
   -0.5388    4.4582   -1.4347 N      0
   -0.5782    5.5109   -0.4454 C      0
    0.5406    6.2904   -0.1032 C      0
    1.8830    6.2258   -0.7835 C      0
    0.4323    7.1530    0.9859 C      0
   -0.7241    7.2728    1.7375 C      0
   -0.7835    8.1610    2.9572 C      0
   -1.8297    6.5515    1.3277 C      0
   -1.7892    5.6854    0.2402 C      0
   -3.0681    5.0032   -0.1683 C      0
   -1.5774    1.1489   -2.5221 C      0
   -1.0193    0.1928   -3.3948 C      0
    0.3529    0.2904   -4.0130 C      0
   -1.7293   -0.9688   -3.6782 C      0
   -2.9392   -1.2640   -3.0835 C      0
   -3.6979   -2.5217   -3.4297 C      0
   -3.4103   -0.3723   -2.1392 C      0
   -2.7580    0.8168   -1.8234 C      0
   -3.4180    1.6262   -0.7391 C      0
   -0.4051    3.8698    1.7486 H      0
    0.1542    4.6721    3.9246 H      0
    1.6739    5.0748    5.8211 H      0
    3.9913    4.2372    5.7264 H      0
    4.7894    3.0078    3.7579 H      0
    3.5329    3.1538    0.6329 H      0
    5.3839    1.5629    0.7251 H      0
    4.9612    1.1143    2.3790 H      0
    5.5505    2.7300    2.0120 H      0
    2.5613   -0.0349   -0.5653 H      0
    3.8671   -0.3023    0.5771 H      0
    3.9736    1.0152   -0.5845 H      0
    1.3292    0.9452    2.5572 H      0
    2.9801    0.3684    2.7893 H      0
    1.9007   -0.4617    1.6784 H      0
   -1.9802    3.4717   -3.8559 H      0
   -0.2966    3.1045   -4.2949 H      0
   -1.2001    5.5108   -3.1318 H      0
    0.4916    4.9665   -3.1970 H      0
    2.4396    5.3473   -0.4639 H      0
    1.7637    6.1778   -1.8641 H      0
    2.4757    7.1076   -0.5482 H      0
    1.2969    7.7430    1.2696 H      0
   -0.2563    7.7017    3.7905 H      0
   -1.8142    8.3287    3.2621 H      0
   -0.3259    9.1272    2.7575 H      0
   -2.7595    6.6635    1.8766 H      0
   -3.0355    4.7253   -1.2192 H      0
   -3.9181    5.6679   -0.0239 H      0
   -3.2437    4.1061    0.4215 H      0
    0.7466   -0.6993   -4.2359 H      0
    1.0456    0.7860   -3.3356 H      0
    0.3192    0.8592   -4.9399 H      0
   -1.3110   -1.6759   -4.3871 H      0
   -3.0548   -3.2277   -3.9511 H      0
   -4.5445   -2.2943   -4.0744 H      0
   -4.0752   -3.0053   -2.5311 H      0
   -4.3349   -0.6071   -1.6222 H      0
   -4.4146    1.2437   -0.5280 H      0
   -2.8383    1.5806    0.1807 H      0
   -3.5090    2.6696   -1.0337 H      0
   -1.5744    2.9225   -0.4940 H      0
  1  2  1
  2  3  2
  3  4  1
  4  5  4
  5  6  4
  6  7  4
  7  8  4
  8  9  4
  4  9  4
  9 10  1
 10 11  1
 10 12  1
  2 12  1
 12 13  1
 12 14  1
  2 15  1
  2 16  1
 16 17  1
 17 18  1
 18 19  1
 19 20  1
 16 20  1
 20 21  1
 21 22  4
 22 23  1
 22 24  4
 24 25  4
 25 26  1
 25 27  4
 27 28  4
 21 28  4
 28 29  1
 17 30  1
 30 31  4
 31 32  1
 31 33  4
 33 34  4
 34 35  1
 34 36  4
 36 37  4
 30 37  4
 37 38  1
  3 39  1
  5 40  1
  6 41  1
  7 42  1
  8 43  1
 10 44  1
 11 45  1
 11 46  1
 11 47  1
 13 48  1
 13 49  1
 13 50  1
 14 51  1
 14 52  1
 14 53  1
 18 54  1
 18 55  1
 19 56  1
 19 57  1
 23 58  1
 23 59  1
 23 60  1
 24 61  1
 26 62  1
 26 63  1
 26 64  1
 27 65  1
 29 66  1
 29 67  1
 29 68  1
 32 69  1
 32 70  1
 32 71  1
 33 72  1
 35 73  1
 35 74  1
 35 75  1
 36 76  1
 38 77  1
 38 78  1
 38 79  1
 16 80  1
M  END
$$$$
