
  --CCDC--092525    3D                              

 80 84  0  0  0  0  0  0  0  0999 V2000
    2.4344   -1.0887   -4.2855 H      0
    1.8162   -1.3860   -3.4438 C      0
    1.5937   -0.5690   -2.5556 O      0
    0.4599   -0.1026   -3.2842 Cl     0
    2.7224   -1.0899   -1.8575 Cl     0
    2.2010    0.7416   -2.6479 C      0
    2.7499    1.0280   -3.9850 N      0
    2.0798    2.0159   -4.8211 C      0
    1.2889    1.5468   -5.8908 C      0
    1.0569    0.0951   -6.2276 C      0
    0.2063   -0.3029   -5.6799 H      0
    0.8591   -0.0252   -7.2907 H      0
    1.9308   -0.5028   -5.9775 H      0
    0.6144    2.4617   -6.6929 C      0
    0.0154    2.0881   -7.5169 H      0
    0.6641    3.8240   -6.4762 C      0
   -0.0860    4.7897   -7.3609 C      0
    0.4368    5.7419   -7.4226 H      0
   -1.0840    4.9756   -6.9696 H      0
   -0.1857    4.3918   -8.3686 H      0
    1.4462    4.2663   -5.4281 C      0
    1.5100    5.3337   -5.2445 H      0
    2.1686    3.4069   -4.6054 C      0
    3.0322    4.0930   -3.5829 C      0
    3.0780    3.5310   -2.6535 H      0
    2.6334    5.0790   -3.3535 H      0
    4.0372    4.2262   -3.9694 H      0
    4.2245    1.0203   -3.9119 C      0
    4.6522    1.7121   -4.6361 H      0
    4.6163    0.0200   -4.0902 H      0
    4.5179    1.4682   -2.5045 C      0
    4.4966    2.5534   -2.4167 H      0
    5.4802    1.0947   -2.1576 H      0
    3.3989    0.8430   -1.7764 N      0
    3.2368    1.1045   -0.3611 C      0
    4.0297    0.3577    0.5232 C      0
    5.0181   -0.6837    0.0644 C      0
    5.3656   -0.4885   -0.9464 H      0
    4.5655   -1.6730    0.0786 H      0
    5.8861   -0.7021    0.7201 H      0
    3.9001    0.5752    1.8914 C      0
    4.5048   -0.0132    2.5737 H      0
    3.0253    1.5104    2.4137 C      0
    2.8945    1.7136    3.9034 C      0
    3.8298    1.4805    4.4080 H      0
    2.6348    2.7454    4.1306 H      0
    2.1186    1.0706    4.3137 H      0
    2.2964    2.2730    1.5189 C      0
    1.6263    3.0330    1.9069 H      0
    2.4002    2.1139    0.1401 C      0
    1.6415    3.0810   -0.7253 C      0
    1.8760    2.9092   -1.7730 H      0
    1.9160    4.1058   -0.4841 H      0
    0.5678    2.9798   -0.5858 H      0
    0.8583   -0.8024   -1.4731 N      0
    1.7594   -1.0954   -0.4147 C      0
    2.8136   -1.0049   -0.6690 H      0
    1.5646   -2.0480    0.0832 H      0
    1.6524   -0.3579    0.3754 H      0
    0.1484    0.3803   -1.1345 C      0
    0.7388    1.0594   -0.5328 H      0
   -0.7232    0.1363   -0.5325 H      0
   -0.2395    0.9319   -1.9897 H      0
   -0.1414   -1.9634   -1.5581 C      0
   -1.1071   -1.6137   -1.9575 H      0
   -0.3904   -2.4987   -0.1592 C      0
   -1.4091   -2.8724   -0.0802 H      0
   -0.2670   -1.7231    0.5931 H      0
    0.2761   -3.3230    0.0846 H      0
    0.3756   -3.0793   -2.4288 C      0
   -0.0583   -4.3972   -2.3185 C      0
   -0.7791   -4.6731   -1.5502 H      0
    0.4313   -5.3576   -3.1912 C      0
    0.0934   -6.3895   -3.1072 H      0
    1.3454   -5.0107   -4.1662 C      0
    1.7256   -5.7699   -4.8480 H      0
    1.7812   -3.6990   -4.2805 C      0
    2.5022   -3.4305   -5.0512 H      0
    1.2949   -2.7194   -3.4057 C      0
    1.4763    1.5065   -2.3728 H      0
  1  2  1
  2  3  2
  3  4  1
  3  5  1
  3  6  1
  6  7  1
  7  8  1
  8  9  4
  9 10  1
 10 11  1
 10 12  1
 10 13  1
  9 14  4
 14 15  1
 14 16  4
 16 17  1
 17 18  1
 17 19  1
 17 20  1
 16 21  4
 21 22  1
 21 23  4
  8 23  4
 23 24  1
 24 25  1
 24 26  1
 24 27  1
  7 28  1
 28 29  1
 28 30  1
 28 31  1
 31 32  1
 31 33  1
 31 34  1
  6 34  1
 34 35  1
 35 36  4
 36 37  1
 37 38  1
 37 39  1
 37 40  1
 36 41  4
 41 42  1
 41 43  4
 43 44  1
 44 45  1
 44 46  1
 44 47  1
 43 48  4
 48 49  1
 48 50  4
 35 50  4
 50 51  1
 51 52  1
 51 53  1
 51 54  1
  3 55  1
 55 56  1
 56 57  1
 56 58  1
 56 59  1
 55 60  1
 60 61  1
 60 62  1
 60 63  1
 55 64  1
 64 65  1
 64 66  1
 66 67  1
 66 68  1
 66 69  1
 64 70  1
 70 71  4
 71 72  1
 71 73  4
 73 74  1
 73 75  4
 75 76  1
 75 77  4
 77 78  1
 77 79  4
 70 79  4
  2 79  1
  6 80  1
M  END
$$$$
