
  --CCDC--092525    3D                              

114121  0  0  0  0  0  0  0  0999 V2000
    1.2636   -0.3084   -0.3893 H      0
    1.5359    0.7365   -0.2986 C      0
    1.6330    1.5326   -1.4199 C      0
    1.4550    1.0965   -2.3978 H      0
    1.9835    2.8775   -1.3244 C      0
    2.1659    3.6203   -2.6372 C      0
    2.4539    4.6575   -2.4128 H      0
    3.2555    2.9756   -3.4937 C      0
    3.4184    3.5474   -4.4048 H      0
    2.9690    1.9654   -3.7791 H      0
    4.1955    2.9208   -2.9509 H      0
    0.8713    3.5917   -3.4484 C      0
    0.7971    2.6660   -4.0150 H      0
    0.8274    4.4192   -4.1523 H      0
    0.0049    3.6527   -2.7984 H      0
    2.2002    3.4466   -0.0470 C      0
    2.6384    4.8087    0.0155 N      0
    4.0186    5.0304   -0.2498 C      0
    4.5428    6.3128   -0.3303 C      0
    5.9668    6.2366   -0.6824 C      0
    7.0200    7.0890   -0.9313 C      0
    6.8770    8.1641   -0.8784 H      0
    8.2704    6.5712   -1.2517 C      0
    9.0859    7.2579   -1.4534 H      0
    8.5105    5.2260   -1.3178 C      0
    9.5011    4.8625   -1.5696 H      0
    7.4693    4.3060   -1.0618 C      0
    7.5662    2.8960   -1.0710 C      0
    8.5158    2.4240   -1.2957 H      0
    6.4686    2.1289   -0.7997 C      0
    6.5690    1.0496   -0.7959 H      0
    5.2290    2.6873   -0.5230 C      0
    4.3817    2.0486   -0.2978 H      0
    5.0782    4.0540   -0.5070 C      0
    6.2088    4.8511   -0.7631 C      0
    3.6981    7.4454   -0.1449 N      0
    4.2346    8.7546   -0.3210 C      0
    4.5148    9.2746   -1.6133 C      0
    4.2207    8.6767   -2.9916 C      0
    3.7068    7.7197   -2.8146 H      0
    5.3913    8.3769   -3.9258 C      0
    5.0553    7.8030   -4.7855 H      0
    6.1561    7.8074   -3.4102 H      0
    5.8390    9.2890   -4.3094 H      0
    3.2719    9.5872   -3.7731 C      0
    3.0621    9.1660   -4.7529 H      0
    3.7153   10.5709   -3.9134 H      0
    2.3201    9.7176   -3.2669 H      0
    5.1417   10.5197   -1.6659 C      0
    5.3615   10.9713   -2.6244 H      0
    5.4978   11.2231   -0.5387 C      0
    5.9859   12.1860   -0.6373 H      0
    5.2312   10.6953    0.7045 C      0
    5.5469   11.2545    1.5764 H      0
    4.5974    9.4607    0.8447 C      0
    4.3724    8.8975    2.2398 C      0
    3.8436    7.9366    2.1511 H      0
    3.5274    9.8298    3.1100 C      0
    3.2421   10.7235    2.5591 H      0
    4.0797   10.1432    3.9933 H      0
    2.6189    9.3333    3.4446 H      0
    5.7172    8.6516    2.9226 C      0
    6.2782    9.5791    3.0137 H      0
    6.3182    7.9521    2.3464 H      0
    5.5798    8.2395    3.9198 H      0
    1.2044    6.9727    0.6484 Eu     0
    2.2303    6.3080    3.0113 N      0
    2.7459    5.9739    4.1988 C      0
    3.4053    5.5494    5.7213 S      0
    1.1263    9.6247    0.5277 O      0
    0.7817   10.1994   -0.7078 C      0
    1.3963    9.7790   -1.5025 H      0
    0.9393   11.2762   -0.6899 H      0
   -0.2641   10.0068   -0.9479 H      0
    0.5022   10.2645    1.6278 C      0
    1.1936   10.3093    2.4770 H      0
    0.2537   11.2998    1.3664 H      0
   -0.7451    9.5267    2.0287 C      0
   -1.2192   10.0146    2.8882 H      0
   -1.4789    9.5325    1.2160 H      0
   -0.3897    8.2083    2.3722 O      0
   -0.4137    7.9651    3.7532 C      0
   -1.4439    7.8951    4.0984 H      0
    0.0697    8.7817    4.2878 H      0
    0.0928    7.0383    4.0080 H      0
   -0.9069    5.3737    0.3798 O      0
   -1.0121    4.1112    0.9869 C      0
   -2.0137    3.7048    0.8674 H      0
   -0.3273    3.4037    0.5360 H      0
   -0.8007    4.1698    2.0497 H      0
   -1.5573    5.4520   -0.8784 C      0
   -1.1147    4.7388   -1.5787 H      0
   -2.6136    5.1699   -0.7744 H      0
   -1.4604    6.8451   -1.4496 C      0
   -2.0173    6.9363   -2.3913 H      0
   -1.9010    7.5639   -0.7461 H      0
   -0.1017    7.1609   -1.6496 O      0
    0.4251    6.8669   -2.9142 C      0
    0.6265    7.7864   -3.4595 H      0
    1.3488    6.3043   -2.8351 H      0
   -0.2755    6.2772   -3.4969 H      0
    2.1612    2.6199    1.0978 C      0
    2.5615    3.0394    2.5003 C      0
    2.9537    4.0660    2.4799 H      0
    3.6530    2.1068    3.0257 C      0
    4.5400    2.1546    2.3984 H      0
    3.9406    2.3766    4.0390 H      0
    3.3064    1.0757    3.0387 H      0
    1.3623    2.9563    3.4423 C      0
    0.7985    2.0429    3.2651 H      0
    0.6939    3.7988    3.2941 H      0
    1.6833    2.9561    4.4809 H      0
    1.7957    1.2841    0.9414 C      0
    1.7449    0.6510    1.8202 H      0
  1  2  1
  2  3  4
  3  4  1
  3  5  4
  5  6  1
  6  7  1
  6  8  1
  8  9  1
  8 10  1
  8 11  1
  6 12  1
 12 13  1
 12 14  1
 12 15  1
  5 16  4
 16 17  1
 17 18  1
 18 19  2
 19 20  1
 20 21  4
 21 22  1
 21 23  4
 23 24  1
 23 25  4
 25 26  1
 25 27  4
 27 28  4
 28 29  1
 28 30  4
 30 31  1
 30 32  4
 32 33  1
 32 34  4
 18 34  1
 34 35  4
 20 35  4
 27 35  4
 19 36  1
 36 37  1
 37 38  4
 38 39  1
 39 40  1
 39 41  1
 41 42  1
 41 43  1
 41 44  1
 39 45  1
 45 46  1
 45 47  1
 45 48  1
 38 49  4
 49 50  1
 49 51  4
 51 52  1
 51 53  4
 53 54  1
 53 55  4
 37 55  4
 55 56  1
 56 57  1
 56 58  1
 58 59  1
 58 60  1
 58 61  1
 56 62  1
 62 63  1
 62 64  1
 62 65  1
 36 66  1
 17 66  1
 66 67  1
 67 68  4
 68 69  4
 66 70  1
 70 71  1
 71 72  1
 71 73  1
 71 74  1
 70 75  1
 75 76  1
 75 77  1
 75 78  1
 78 79  1
 78 80  1
 78 81  1
 66 81  1
 81 82  1
 82 83  1
 82 84  1
 82 85  1
 66 86  1
 86 87  1
 87 88  1
 87 89  1
 87 90  1
 86 91  1
 91 92  1
 91 93  1
 91 94  1
 94 95  1
 94 96  1
 94 97  1
 66 97  1
 97 98  1
 98 99  1
 98100  1
 98101  1
 16102  4
102103  1
103104  1
103105  1
105106  1
105107  1
105108  1
103109  1
109110  1
109111  1
109112  1
102113  4
  2113  4
113114  1
M  END
$$$$
