
     RDKit          3D

 23 24  0  0  0  0  0  0  0  0999 V2000
    3.3059    0.6975   -0.8023 C   0  0  0  0  0  0  0  0  0  0  0  0
    2.4974    1.6300   -0.1495 C   0  0  0  0  0  0  0  0  0  0  0  0
    1.3670    1.2065    0.5484 C   0  0  0  0  0  0  0  0  0  0  0  0
    1.0502   -0.1545    0.5777 C   0  0  0  0  0  0  0  0  0  0  0  0
   -0.3991   -0.7004    1.4671 S   0  0  0  0  0  6  0  0  0  0  0  0
   -0.1318   -2.0733    1.8656 O   0  0  0  0  0  0  0  0  0  0  0  0
   -0.6490    0.2959    2.4962 O   0  0  0  0  0  0  0  0  0  0  0  0
   -1.7546   -0.7219    0.2787 C   0  0  2  0  0  0  0  0  0  0  0  0
   -1.9975    0.6718   -0.1601 N   0  0  0  0  0  0  0  0  0  0  0  0
   -3.3343    0.5925    0.0859 C   0  0  0  0  0  0  0  0  0  0  0  0
   -4.2357    1.2856   -0.3136 O   0  0  0  0  0  0  0  0  0  0  0  0
   -3.1655   -0.7064    0.8881 C   0  0  0  0  0  0  0  0  0  0  0  0
    1.8637   -1.0955   -0.0595 C   0  0  0  0  0  0  0  0  0  0  0  0
    2.9925   -0.6624   -0.7546 C   0  0  0  0  0  0  0  0  0  0  0  0
    4.1913    1.0308   -1.3392 H   0  0  0  0  0  0  0  0  0  0  0  0
    2.7558    2.6861   -0.1769 H   0  0  0  0  0  0  0  0  0  0  0  0
    0.7490    1.9364    1.0675 H   0  0  0  0  0  0  0  0  0  0  0  0
   -1.5888   -1.4054   -0.5598 H   0  0  0  0  0  0  0  0  0  0  0  0
   -1.7286    1.1168   -1.0279 H   0  0  0  0  0  0  0  0  0  0  0  0
   -3.2449   -0.5658    1.9690 H   0  0  0  0  0  0  0  0  0  0  0  0
   -3.8172   -1.5210    0.5641 H   0  0  0  0  0  0  0  0  0  0  0  0
    1.6375   -2.1583   -0.0119 H   0  0  0  0  0  0  0  0  0  0  0  0
    3.6366   -1.3846   -1.2512 H   0  0  0  0  0  0  0  0  0  0  0  0
  1  2  2  0
  2  3  1  0
  3  4  2  0
  4  5  1  0
  5  6  2  0
  5  7  2  0
  5  8  1  0
  8  9  1  0
  9 10  1  0
 10 11  2  0
 10 12  1  0
  4 13  1  0
 13 14  2  0
 14  1  1  0
 12  8  1  0
  1 15  1  0
  2 16  1  0
  3 17  1  0
  8 18  1  6
  9 19  1  0
 12 20  1  0
 12 21  1  0
 13 22  1  0
 14 23  1  0
M  END
