
     RDKit          3D

 42 41  0  0  0  0  0  0  0  0999 V2000
    1.1005    0.9210    2.3807 C   0  0  0  0  0  0  0  0  0  0  0  0
    0.0312   -0.0284    1.0168 Pt  0  0  0  0  0  6  0  0  0  0  0  0
    0.9146   -1.7062    1.2768 C   0  0  0  0  0  0  0  0  0  0  0  0
   -1.3247   -0.4323    2.3251 C   0  0  0  0  0  0  0  0  0  0  0  0
   -0.5374    1.4536    0.6974 N   0  0  0  0  0  0  0  0  0  0  0  0
   -0.9352    2.5614    0.8985 N   0  0  0  0  0  4  0  0  0  0  0  0
   -0.7379    3.6730    0.4145 N   0  0  0  0  0  2  0  0  0  0  0  0
    1.2724    0.3125   -0.4508 P   0  0  0  0  0  4  0  0  0  0  0  0
    1.5988   -1.0438   -1.6797 C   0  0  0  0  0  0  0  0  0  0  0  0
    3.0773    0.4763    0.0480 C   0  0  0  0  0  0  0  0  0  0  0  0
    1.2643    1.8205   -1.4281 C   0  0  0  0  0  0  0  0  0  0  0  0
   -1.3975   -0.2638   -0.3708 P   0  0  0  0  0  4  0  0  0  0  0  0
   -3.1809    0.2195    0.0256 C   0  0  0  0  0  0  0  0  0  0  0  0
   -1.7298   -2.0894   -0.5279 C   0  0  0  0  0  0  0  0  0  0  0  0
   -1.3108    0.1697   -2.0714 C   0  0  0  0  0  0  0  0  0  0  0  0
    1.3037    0.2098    3.2229 H   0  0  0  0  0  0  0  0  0  0  0  0
    0.6767    1.7116    3.0057 H   0  0  0  0  0  0  0  0  0  0  0  0
    2.0809    1.1927    2.1317 H   0  0  0  0  0  0  0  0  0  0  0  0
    1.9956   -1.8459    1.2128 H   0  0  0  0  0  0  0  0  0  0  0  0
    0.8817   -2.1485    2.3346 H   0  0  0  0  0  0  0  0  0  0  0  0
    0.4666   -2.5628    0.7388 H   0  0  0  0  0  0  0  0  0  0  0  0
   -0.8940   -0.7055    3.3444 H   0  0  0  0  0  0  0  0  0  0  0  0
   -2.0087    0.3082    2.6452 H   0  0  0  0  0  0  0  0  0  0  0  0
   -1.8799   -1.3819    2.2172 H   0  0  0  0  0  0  0  0  0  0  0  0
    0.7207   -1.6032   -1.9504 H   0  0  0  0  0  0  0  0  0  0  0  0
    2.2858   -1.8201   -1.2118 H   0  0  0  0  0  0  0  0  0  0  0  0
    2.0223   -0.6100   -2.5721 H   0  0  0  0  0  0  0  0  0  0  0  0
    3.2400    1.4698    0.5508 H   0  0  0  0  0  0  0  0  0  0  0  0
    3.3343   -0.2674    0.7903 H   0  0  0  0  0  0  0  0  0  0  0  0
    3.7161    0.5063   -0.8083 H   0  0  0  0  0  0  0  0  0  0  0  0
    0.2707    2.2226   -1.6916 H   0  0  0  0  0  0  0  0  0  0  0  0
    1.7030    2.7141   -0.8713 H   0  0  0  0  0  0  0  0  0  0  0  0
    1.9253    1.6682   -2.2568 H   0  0  0  0  0  0  0  0  0  0  0  0
   -2.9944    1.2236    0.5166 H   0  0  0  0  0  0  0  0  0  0  0  0
   -3.7390    0.4394   -0.8469 H   0  0  0  0  0  0  0  0  0  0  0  0
   -3.5855   -0.3911    0.8167 H   0  0  0  0  0  0  0  0  0  0  0  0
   -2.1290   -2.3813    0.4833 H   0  0  0  0  0  0  0  0  0  0  0  0
   -0.8402   -2.6593   -0.7233 H   0  0  0  0  0  0  0  0  0  0  0  0
   -2.5399   -2.2540   -1.2247 H   0  0  0  0  0  0  0  0  0  0  0  0
   -1.9432   -0.4895   -2.6339 H   0  0  0  0  0  0  0  0  0  0  0  0
   -0.3718    0.2106   -2.6020 H   0  0  0  0  0  0  0  0  0  0  0  0
   -1.8030    1.2001   -2.2190 H   0  0  0  0  0  0  0  0  0  0  0  0
  1  2  1  0
  2  3  1  0
  2  4  1  0
  2  5  1  0
  5  6  2  0
  6  7  2  0
  2  8  1  0
  8  9  1  0
  8 10  1  0
  8 11  1  0
  2 12  1  0
 12 13  1  0
 12 14  1  0
 12 15  1  0
  1 16  1  0
  1 17  1  0
  1 18  1  0
  3 19  1  0
  3 20  1  0
  3 21  1  0
  4 22  1  0
  4 23  1  0
  4 24  1  0
  9 25  1  0
  9 26  1  0
  9 27  1  0
 10 28  1  0
 10 29  1  0
 10 30  1  0
 11 31  1  0
 11 32  1  0
 11 33  1  0
 13 34  1  0
 13 35  1  0
 13 36  1  0
 14 37  1  0
 14 38  1  0
 14 39  1  0
 15 40  1  0
 15 41  1  0
 15 42  1  0
M  CHG  2   6   1   7  -1
M  RAD  2   8   2  12   2
M  END
