
  --CCDC--092525    3D                              

 53 52  0  0  0  0  0  0  0  0999 V2000
    0.1895    0.0389    0.0229 C      0
    2.1083    0.0325   -0.8318 Rh     0
    2.8476   -2.2708    0.6214 I      0
    4.7080   -0.0520   -1.9245 I      0
    2.8665    1.2149    0.7298 C      0
    3.2783    1.8543    1.5783 O      0
    1.6295    2.1840   -1.9836 P      0
   -0.0452    2.3091   -2.6639 C      0
   -0.1083    2.2934   -4.1829 C      0
    1.6391    3.4973   -0.7340 C      0
    0.5430    3.3558    0.3127 C      0
    2.8930    2.7952   -3.1364 C      0
    3.1367    1.9985   -4.4105 C      0
    1.2095   -1.3691   -2.6827 P      0
   -0.5558   -1.0436   -2.9512 C      0
   -1.2912   -2.0587   -3.8163 C      0
    1.4244   -3.1305   -2.3070 C      0
    0.4370   -3.6839   -1.2865 C      0
    2.1119   -1.0894   -4.2298 C      0
    1.9132   -2.1552   -5.2988 C      0
   -0.4018    0.8405   -0.4146 H      0
    0.2722    0.2004    1.0955 H      0
   -0.2992   -0.9155   -0.1622 H      0
   -0.4771    3.2596   -2.3268 H      0
   -0.6717    1.5118   -2.2473 H      0
   -1.1379    2.3807   -4.5245 H      0
    0.4559    3.1262   -4.5976 H      0
    0.3056    1.3695   -4.5804 H      0
    1.4976    4.4579   -1.2452 H      0
    2.6202    3.5420   -0.2464 H      0
    0.6372    2.4281    0.8701 H      0
   -0.4392    3.3709   -0.1544 H      0
    0.5897    4.1784    1.0238 H      0
    3.8441    2.8804   -2.5967 H      0
    2.6064    3.8122   -3.4326 H      0
    2.2251    1.8576   -4.9833 H      0
    3.8479    2.5183   -5.0489 H      0
    3.5494    1.0198   -4.1941 H      0
   -0.6594   -0.0622   -3.4215 H      0
   -1.0638   -0.9966   -1.9810 H      0
   -1.0088   -1.9819   -4.8602 H      0
   -2.3648   -1.8927   -3.7560 H      0
   -1.0965   -3.0757   -3.4880 H      0
    2.4524   -3.2982   -1.9642 H      0
    1.3037   -3.7092   -3.2308 H      0
    0.8507   -4.5640   -0.7977 H      0
   -0.4925   -3.9809   -1.7636 H      0
    0.1966   -2.9513   -0.5212 H      0
    3.1842   -1.0543   -4.0136 H      0
    1.8190   -0.1183   -4.6418 H      0
    0.8816   -2.2113   -5.6292 H      0
    2.2144   -3.1348   -4.9348 H      0
    2.5200   -1.9248   -6.1722 H      0
  1  2  1
  2  3  1
  2  4  1
  2  5  1
  5  6  3
  2  7  1
  7  8  1
  8  9  1
  7 10  1
 10 11  1
  7 12  1
 12 13  1
  2 14  1
 14 15  1
 15 16  1
 14 17  1
 17 18  1
 14 19  1
 19 20  1
  1 21  1
  1 22  1
  1 23  1
  8 24  1
  8 25  1
  9 26  1
  9 27  1
  9 28  1
 10 29  1
 10 30  1
 11 31  1
 11 32  1
 11 33  1
 12 34  1
 12 35  1
 13 36  1
 13 37  1
 13 38  1
 15 39  1
 15 40  1
 16 41  1
 16 42  1
 16 43  1
 17 44  1
 17 45  1
 18 46  1
 18 47  1
 18 48  1
 19 49  1
 19 50  1
 20 51  1
 20 52  1
 20 53  1
M  END
$$$$
