
 OpenBabel09252515263D

 46 54  0  0  0  0  0  0  0  0999 V2000
    0.9189   -0.0569   -0.0136 Cl  0  0  0  0  0  0  0  0  0  0  0  0
    3.3489   -0.0569   -0.0136 Ir  0  0  0  0  0  0  0  0  0  0  0  0
    3.3533   -1.4691   -0.0029 C   0  0  0  0  0  0  0  0  0  0  0  0
    3.4143   -2.1785   -1.1566 C   0  0  0  0  0  0  0  0  0  0  0  0
    3.4829   -1.5384   -2.4134 C   0  0  0  0  0  0  0  0  0  0  0  0
    3.5486   -2.2838   -3.5987 C   0  0  0  0  0  0  0  0  0  0  0  0
    3.6174   -1.6507   -4.8211 C   0  0  0  0  0  0  0  0  0  0  0  0
    3.6237   -0.2648   -4.9166 C   0  0  0  0  0  0  0  0  0  0  0  0
    3.5585    0.5199   -3.7401 C   0  0  0  0  0  0  0  0  0  0  0  0
    3.5612    1.9191   -3.7896 C   0  0  0  0  0  0  0  0  0  0  0  0
    3.4956    2.6538   -2.6237 C   0  0  0  0  0  0  0  0  0  0  0  0
    3.4261    2.0319   -1.3883 C   0  0  0  0  0  0  0  0  0  0  0  0
    3.4215    0.6426   -1.3053 C   0  0  0  0  0  0  0  0  0  0  0  0
    3.4880   -0.1260   -2.4860 C   0  0  0  0  0  0  0  0  0  0  0  0
    2.4551    0.8142   -1.7888 C   0  0  0  0  0  0  0  0  0  0  0  0
    3.5171    0.1134   -2.6202 C   0  0  0  0  0  0  0  0  0  0  0  0
    3.1489    1.5045   -2.7082 C   0  0  0  0  0  0  0  0  0  0  0  0
    4.3198    0.6612   -3.1860 C   0  0  0  0  0  0  0  0  0  0  0  0
    2.3710    1.8133   -3.7583 C   0  0  0  0  0  0  0  0  0  0  0  0
    2.8093    2.5966   -4.9850 C   0  0  0  0  0  0  0  0  0  0  0  0
    1.1605    1.3235   -3.5489 C   0  0  0  0  0  0  0  0  0  0  0  0
   -0.0409    1.4238   -4.4745 C   0  0  0  0  0  0  0  0  0  0  0  0
    1.2161    0.6548   -2.2230 C   0  0  0  0  0  0  0  0  0  0  0  0
    0.0817   -0.0647   -1.5117 C   0  0  0  0  0  0  0  0  0  0  0  0
    3.3077   -1.9880    0.9317 H   0  0  0  0  0  0  0  0  0  0  0  0
    3.5454   -3.3529   -3.5541 H   0  0  0  0  0  0  0  0  0  0  0  0
    3.6669   -2.2383   -5.7140 H   0  0  0  0  0  0  0  0  0  0  0  0
    3.6776    0.2075   -5.8752 H   0  0  0  0  0  0  0  0  0  0  0  0
    3.6144    2.4198   -4.7337 H   0  0  0  0  0  0  0  0  0  0  0  0
    3.4984    3.7226   -2.6749 H   0  0  0  0  0  0  0  0  0  0  0  0
    3.3759    2.6205   -0.4961 H   0  0  0  0  0  0  0  0  0  0  0  0
    4.4867    0.4487   -2.3164 H   0  0  0  0  0  0  0  0  0  0  0  0
    3.4437   -0.9441   -2.4747 H   0  0  0  0  0  0  0  0  0  0  0  0
    3.3686    0.3422   -3.6548 H   0  0  0  0  0  0  0  0  0  0  0  0
    3.9520   -0.2366   -3.6373 H   0  0  0  0  0  0  0  0  0  0  0  0
    4.8883    1.2144   -3.9041 H   0  0  0  0  0  0  0  0  0  0  0  0
    4.9433    0.4120   -2.3529 H   0  0  0  0  0  0  0  0  0  0  0  0
    3.1423    3.5689   -4.6871 H   0  0  0  0  0  0  0  0  0  0  0  0
    3.6095    2.0790   -5.4714 H   0  0  0  0  0  0  0  0  0  0  0  0
    1.9846    2.6933   -5.6598 H   0  0  0  0  0  0  0  0  0  0  0  0
   -0.2809    2.4538   -4.6370 H   0  0  0  0  0  0  0  0  0  0  0  0
    0.1901    0.9595   -5.4104 H   0  0  0  0  0  0  0  0  0  0  0  0
   -0.8778    0.9289   -4.0277 H   0  0  0  0  0  0  0  0  0  0  0  0
   -0.7243    0.6187   -1.3436 H   0  0  0  0  0  0  0  0  0  0  0  0
   -0.2605   -0.8775   -2.1176 H   0  0  0  0  0  0  0  0  0  0  0  0
    0.4313   -0.4417   -0.5734 H   0  0  0  0  0  0  0  0  0  0  0  0
  1  2  1  0  0  0  0
  2  3  1  0  0  0  0
  2  4  1  0  0  0  0
  2 13  1  0  0  0  0
  2 15  1  0  0  0  0
  2 17  1  0  0  0  0
  2 19  1  0  0  0  0
  2 21  1  0  0  0  0
  2 23  1  0  0  0  0
  3  4  2  0  0  0  0
  3 25  1  0  0  0  0
  4  5  1  0  0  0  0
  5  6  1  0  0  0  0
  5 14  2  0  0  0  0
  6  7  2  0  0  0  0
  6 26  1  0  0  0  0
  7  8  1  0  0  0  0
  7 27  1  0  0  0  0
  8  9  2  0  0  0  0
  8 28  1  0  0  0  0
  9 10  1  0  0  0  0
  9 14  1  0  0  0  0
 10 11  2  0  0  0  0
 10 29  1  0  0  0  0
 11 12  1  0  0  0  0
 11 30  1  0  0  0  0
 12 13  2  0  0  0  0
 12 31  1  0  0  0  0
 13 14  1  0  0  0  0
 15 16  1  0  0  0  0
 15 17  1  0  0  0  0
 15 23  2  0  0  0  0
 16 32  1  0  0  0  0
 16 33  1  0  0  0  0
 16 34  1  0  0  0  0
 17 18  1  0  0  0  0
 17 19  1  0  0  0  0
 18 35  1  0  0  0  0
 18 36  1  0  0  0  0
 18 37  1  0  0  0  0
 19 20  1  0  0  0  0
 19 21  2  0  0  0  0
 20 38  1  0  0  0  0
 20 39  1  0  0  0  0
 20 40  1  0  0  0  0
 21 22  1  0  0  0  0
 21 23  1  0  0  0  0
 22 41  1  0  0  0  0
 22 42  1  0  0  0  0
 22 43  1  0  0  0  0
 23 24  1  0  0  0  0
 24 44  1  0  0  0  0
 24 45  1  0  0  0  0
 24 46  1  0  0  0  0
M  END
$$$$
