
  --CCDC--081225    3D                              

 53 64  0  0  0  0  0  0  0  0999 V2000
   -0.5000    0.0949   -0.9021 C      0
    0.9281   -0.0313   -1.1603 C      0
    2.0509   -0.1155   -1.3486 N      0
    4.1552   -0.2732   -1.7014 Ru     3
    3.0662   -2.6683   -1.6490 Br     0
    5.4305   -3.6683   -0.8619 Ru     0
    4.0998   -3.1405    0.7243 C      0
    3.3804   -2.8794    1.5665 O      0
    3.7689   -5.0119   -1.0155 N      0
    2.8428   -5.6746   -1.1196 C      0
    1.6565   -6.4959   -1.3248 C      0
    6.8584   -5.0486   -0.6347 C      0
    6.6682   -4.5422   -2.2228 C      0
    6.6454   -2.8722   -2.2448 C      0
    6.2015   -1.8715   -3.3034 C      0
    7.4336   -1.7134   -4.1946 C      0
    5.2150   -2.4124   -4.3399 C      0
    5.8700   -0.4974   -2.7049 C      0
    6.0206   -0.6590   -1.2468 C      0
    5.5698    1.0862   -1.2629 C      0
    4.7352    0.7441   -0.0679 C      0
    6.0430    0.1458   -1.0569 C      0
    7.0800   -0.8418   -0.3983 C      0
    8.4691   -0.4095   -0.9087 C      0
    7.2981   -0.5761    1.1003 C      0
    7.0226   -2.3735   -0.7208 C      0
    7.0912   -3.6891    0.2946 C      0
    2.7923    0.0040   -3.3261 C      0
    2.0716    0.1662   -4.1955 O      0
   -0.9061    0.9802   -1.3891 H      0
   -0.6904    0.1737    0.1691 H      0
   -1.0313   -0.7796   -1.2762 H      0
    1.4436   -6.5965   -2.3864 H      0
    0.7881   -6.0385   -0.8523 H      0
    1.7929   -7.4908   -0.9108 H      0
    6.2833   -5.8959   -0.2370 H      0
    7.7609   -4.5267   -2.3413 H      0
    7.3639   -2.3807   -5.0519 H      0
    8.3465   -1.9586   -3.6587 H      0
    7.5167   -0.6940   -4.5656 H      0
    4.1808   -2.1900   -4.1099 H      0
    5.3126   -3.4928   -4.4138 H      0
    5.4371   -2.0024   -5.3226 H      0
    5.3751   -1.2720   -0.5730 H      0
    5.2190    1.7112   -2.0995 H      0
    4.2945    1.7519   -0.0524 H      0
    8.3772    0.3197   -1.7070 H      0
    9.0337   -1.2571   -1.2877 H      0
    9.0454    0.0575   -0.1155 H      0
    8.1009   -1.2034    1.4860 H      0
    6.3952   -0.7684    1.6734 H      0
    7.5781    0.4657    1.2523 H      0
    6.6458   -3.6294    1.3030 H      0
  1  2  1
  2  3  3
  3  4  1
  4  5  1
  5  6  1
  6  7  1
  7  8  3
  6  9  1
  9 10  3
 10 11  1
  6 12  1
 12 13  1
  6 13  1
 13 14  1
  6 14  1
 14 15  1
 15 16  1
 15 17  1
 15 18  1
  4 18  1
 18 19  1
  4 19  1
 19 20  1
  4 20  1
 20 21  1
  4 21  1
 21 22  1
  4 22  1
 18 22  1
 22 23  1
 23 24  1
 23 25  1
 23 26  1
  6 26  1
 14 26  1
 26 27  1
  6 27  1
 12 27  1
  4 28  1
 28 29  3
  1 30  1
  1 31  1
  1 32  1
 11 33  1
 11 34  1
 11 35  1
 12 36  1
 13 37  1
 16 38  1
 16 39  1
 16 40  1
 17 41  1
 17 42  1
 17 43  1
 19 44  1
 20 45  1
 21 46  1
 24 47  1
 24 48  1
 24 49  1
 25 50  1
 25 51  1
 25 52  1
 27 53  1
M  CHG  1   4   1
M  END
$$$$
