
  --CCDC--081225    3D                              

 87103  0  0  0  0  0  0  0  0999 V2000
    0.2260    0.5747    0.2696 H      0
   -1.5113    0.6755   -0.0239 Ru     0
   -1.2003    2.8433    1.0385 Cl     0
    0.9197    2.1881    0.0367 Ru     0
   -0.7382    2.1693   -1.8769 P      3
   -0.5517    1.2494   -3.4324 C      0
   -1.6472    1.2449   -4.2912 C      0
   -1.6121    0.5624   -5.4956 C      0
   -0.4857   -0.1387   -5.8619 C      0
    0.6006   -0.1657   -5.0168 C      0
    0.5655    0.5125   -3.8096 C      0
   -1.7366    3.6649   -2.1379 C      0
   -1.3852    4.5053   -3.1908 C      0
   -2.0937    5.6670   -3.4466 C      0
   -3.1674    6.0113   -2.6571 C      0
   -3.5350    5.1909   -1.6144 C      0
   -2.8318    4.0259   -1.3551 C      0
    1.5045    3.8764    0.9529 C      0
    0.6455    4.8892    1.6778 C      0
    2.0471    2.6331    1.6911 C      0
    3.3512    3.1823    2.2252 C      0
    2.5321    1.3864    0.9211 C      0
    2.6373    0.0564    1.6340 C      0
    2.6935    1.4716   -0.6127 C      0
    3.0306    0.1946   -1.3492 C      0
    2.2923    2.7717   -1.3440 C      0
    2.3052    2.8447   -2.8562 C      0
    1.6737    3.9604   -0.5739 C      0
    0.9964    5.1091   -1.2877 C      0
   -3.5271    0.9146   -0.2629 C      0
   -4.9564    0.4624   -0.0343 C      0
   -3.0906    0.6459    1.1974 C      0
   -3.4252    1.6248    2.3020 C      0
   -2.1327   -0.5306    1.4705 C      0
   -1.5456   -0.6691    2.8576 C      0
   -1.4842   -1.3130    0.3110 C      0
   -0.2907   -2.1996    0.5900 C      0
   -1.8005   -0.9494   -1.1515 C      0
   -0.9532   -1.5847   -2.2296 C      0
   -2.8788    0.1285   -1.4408 C      0
   -3.8634   -0.8546   -2.0445 C      0
   -2.5436    1.7897   -4.0138 H      0
   -2.4753    0.5804   -6.1527 H      0
   -0.4556   -0.6691   -6.8079 H      0
    1.4876   -0.7245   -5.2961 H      0
    1.4171    0.4550   -3.1528 H      0
   -0.5404    4.2464   -3.8205 H      0
   -1.8014    6.3083   -4.2715 H      0
   -3.7213    6.9227   -2.8561 H      0
   -4.3829    5.4579   -0.9922 H      0
   -3.1542    3.3969   -0.5363 H      0
   -0.1545    5.2516    1.0357 H      0
    1.2420    5.7455    1.9856 H      0
    0.1992    4.4533    2.5692 H      0
    4.1908    2.5769    1.8900 H      0
    3.3505    3.1880    3.3132 H      0
    3.5100    4.2021    1.8810 H      0
    1.6827   -0.4648    1.6207 H      0
    2.9292    0.1992    2.6723 H      0
    3.3796   -0.5817    1.1596 H      0
    2.1356   -0.3998   -1.5205 H      0
    3.7320   -0.4078   -0.7761 H      0
    3.4852    0.4096   -2.3136 H      0
    2.6970    1.9289   -3.2912 H      0
    2.9441    3.6620   -3.1841 H      0
    1.3146    3.0236   -3.2641 H      0
    1.0058    4.9752   -2.3664 H      0
    1.5022    6.0460   -1.0635 H      0
   -0.0379    5.2050   -0.9654 H      0
   -5.5745    0.6351   -0.9131 H      0
   -5.4043    1.0189    0.7859 H      0
   -5.0008   -0.5942    0.2226 H      0
   -4.2784    1.2741    2.8789 H      0
   -3.6745    2.6015    1.8924 H      0
   -2.5853    1.7438    2.9833 H      0
   -1.3281   -1.7110    3.0828 H      0
   -2.2400   -0.2984    3.6087 H      0
   -0.6203   -0.1033    2.9431 H      0
   -0.2892   -3.0618   -0.0737 H      0
   -0.3071   -2.5630    1.6152 H      0
    0.6384   -1.6549    0.4371 H      0
   -1.0587   -2.6674   -2.2135 H      0
    0.0981   -1.3469   -2.0825 H      0
   -1.2495   -1.2299   -3.2145 H      0
   -3.4143   -1.3780   -2.8854 H      0
   -4.7500   -0.3493   -2.4224 H      0
   -4.1713   -1.6024   -1.3164 H      0
  1  2  1
  2  3  1
  3  4  1
  1  4  1
  2  4  1
  4  5  1
  2  5  1
  5  6  1
  6  7  4
  7  8  4
  8  9  4
  9 10  4
 10 11  4
  6 11  4
  5 12  1
 12 13  4
 13 14  4
 14 15  4
 15 16  4
 16 17  4
 12 17  4
  4 18  1
 18 19  1
 18 20  4
  4 20  1
 20 21  1
 20 22  4
  4 22  1
 22 23  1
 22 24  4
  4 24  1
 24 25  1
 24 26  4
  4 26  1
 26 27  1
 26 28  4
  4 28  1
 18 28  4
 28 29  1
  2 30  1
 30 31  1
 30 32  4
  2 32  1
 32 33  1
 32 34  4
  2 34  1
 34 35  1
 34 36  4
  2 36  1
 36 37  1
 36 38  4
  2 38  1
 38 39  1
 38 40  4
  2 40  1
 30 40  4
 40 41  1
  7 42  1
  8 43  1
  9 44  1
 10 45  1
 11 46  1
 13 47  1
 14 48  1
 15 49  1
 16 50  1
 17 51  1
 19 52  1
 19 53  1
 19 54  1
 21 55  1
 21 56  1
 21 57  1
 23 58  1
 23 59  1
 23 60  1
 25 61  1
 25 62  1
 25 63  1
 27 64  1
 27 65  1
 27 66  1
 29 67  1
 29 68  1
 29 69  1
 31 70  1
 31 71  1
 31 72  1
 33 73  1
 33 74  1
 33 75  1
 35 76  1
 35 77  1
 35 78  1
 37 79  1
 37 80  1
 37 81  1
 39 82  1
 39 83  1
 39 84  1
 41 85  1
 41 86  1
 41 87  1
M  CHG  1   5   1
M  END
$$$$
