
     RDKit          3D

 46 54  0  0  0  0  0  0  0  0999 V2000
    0.2648   -2.0859    0.7781 Cl  0  0  0  0  0  0  0  0  0  0  0  0
   -0.3692    0.1108    0.4541 Ir  0  0  0  0  0  9  0  0  0  0  0  0
    0.3665    0.9896    1.9990 C   0  0  0  0  0  0  0  0  0  0  0  0
    1.2152    0.3009    1.4331 C   0  0  0  0  0  0  0  0  0  0  0  0
    2.5454   -0.3332    1.1342 C   0  0  0  0  0  0  0  0  0  0  0  0
    3.7424   -0.7689    1.6524 C   0  0  0  0  0  0  0  0  0  0  0  0
    4.7615   -0.8296    0.7470 C   0  0  0  0  0  0  0  0  0  0  0  0
    4.6160   -0.4839   -0.5666 C   0  0  0  0  0  0  0  0  0  0  0  0
    3.3989   -0.0647   -1.0353 C   0  0  0  0  0  0  0  0  0  0  0  0
    3.5512    0.4356   -2.3468 C   0  0  0  0  0  0  0  0  0  0  0  0
    2.4327    1.0625   -2.8485 C   0  0  0  0  0  0  0  0  0  0  0  0
    1.3040    1.1347   -2.0693 C   0  0  0  0  0  0  0  0  0  0  0  0
    1.0385    0.6554   -0.7459 C   0  0  0  0  0  0  0  0  0  0  0  0
    2.1979    0.0420   -0.2341 C   0  0  0  0  0  0  0  0  0  0  0  0
   -1.0888   -0.5993   -0.7530 C   0  0  0  0  0  0  0  0  0  0  0  0
   -1.2316   -1.0729   -2.0805 C   0  0  0  0  0  0  0  0  0  0  0  0
   -1.4989   -1.3216    0.3764 C   0  0  0  0  0  0  0  0  0  0  0  0
   -2.8597   -1.7160    0.1330 C   0  0  0  0  0  0  0  0  0  0  0  0
   -1.5209   -0.4796    1.4705 C   0  0  0  0  0  0  0  0  0  0  0  0
   -1.8378   -0.7882    2.8115 C   0  0  0  0  0  0  0  0  0  0  0  0
   -1.9425    0.7073    0.8615 C   0  0  0  0  0  0  0  0  0  0  0  0
   -2.7835    1.5267    1.6141 C   0  0  0  0  0  0  0  0  0  0  0  0
   -1.6117    0.6670   -0.4009 C   0  0  0  0  0  0  0  0  0  0  0  0
   -2.0815    1.4727   -1.4848 C   0  0  0  0  0  0  0  0  0  0  0  0
    0.3859    1.6894    2.9322 H   0  0  0  0  0  0  0  0  0  0  0  0
    3.5909   -0.9732    2.6887 H   0  0  0  0  0  0  0  0  0  0  0  0
    5.6459   -1.1760    1.2151 H   0  0  0  0  0  0  0  0  0  0  0  0
    5.5078   -0.5782   -1.1366 H   0  0  0  0  0  0  0  0  0  0  0  0
    4.4000    0.3843   -2.9661 H   0  0  0  0  0  0  0  0  0  0  0  0
    2.2618    1.5216   -3.7715 H   0  0  0  0  0  0  0  0  0  0  0  0
    0.4314    1.6483   -2.4375 H   0  0  0  0  0  0  0  0  0  0  0  0
   -0.5306   -0.5554   -2.7911 H   0  0  0  0  0  0  0  0  0  0  0  0
   -0.9710   -2.1483   -2.1493 H   0  0  0  0  0  0  0  0  0  0  0  0
   -2.2572   -0.8430   -2.4908 H   0  0  0  0  0  0  0  0  0  0  0  0
   -2.9288   -2.3681   -0.7600 H   0  0  0  0  0  0  0  0  0  0  0  0
   -3.2608   -2.2761    0.9768 H   0  0  0  0  0  0  0  0  0  0  0  0
   -3.5450   -0.8655   -0.0589 H   0  0  0  0  0  0  0  0  0  0  0  0
   -2.0965   -1.8604    2.9280 H   0  0  0  0  0  0  0  0  0  0  0  0
   -0.9424   -0.6154    3.4847 H   0  0  0  0  0  0  0  0  0  0  0  0
   -2.6092   -0.1328    3.2057 H   0  0  0  0  0  0  0  0  0  0  0  0
   -3.7740    1.0854    1.8016 H   0  0  0  0  0  0  0  0  0  0  0  0
   -2.8418    2.5481    1.1272 H   0  0  0  0  0  0  0  0  0  0  0  0
   -2.3594    1.7881    2.6300 H   0  0  0  0  0  0  0  0  0  0  0  0
   -3.1958    1.5313   -1.4021 H   0  0  0  0  0  0  0  0  0  0  0  0
   -1.9002    1.1453   -2.5256 H   0  0  0  0  0  0  0  0  0  0  0  0
   -1.6203    2.4891   -1.3997 H   0  0  0  0  0  0  0  0  0  0  0  0
  1  2  1  0
  2  3  1  0
  3  4  2  0
  4  5  1  0
  5  6  2  0
  6  7  1  0
  7  8  2  0
  8  9  1  0
  9 10  2  0
 10 11  1  0
 11 12  2  0
 12 13  1  0
 13 14  2  0
  2 15  1  0
 15 16  1  0
 15 17  1  0
 17 18  1  0
 17 19  1  0
 19 20  1  0
 19 21  1  0
 21 22  1  0
 21 23  1  0
 23 24  1  0
  4  2  1  0
 14  5  1  0
 23 15  1  0
 13  2  1  0
 17  2  1  0
 19  2  1  0
 21  2  1  0
 23  2  1  0
 14  9  1  0
  3 25  1  0
  6 26  1  0
  7 27  1  0
  8 28  1  0
 10 29  1  0
 11 30  1  0
 12 31  1  0
 16 32  1  0
 16 33  1  0
 16 34  1  0
 18 35  1  0
 18 36  1  0
 18 37  1  0
 20 38  1  0
 20 39  1  0
 20 40  1  0
 22 41  1  0
 22 42  1  0
 22 43  1  0
 24 44  1  0
 24 45  1  0
 24 46  1  0
M  END
