
 OpenBabel09252514483D

 87103  0  0  0  0  0  0  0  0999 V2000
    0.8180    1.0620   -0.2230 H   0  0  0  0  0  0  0  0  0  0  0  0
    1.8030   -0.0000    0.2970 Ru  0  0  0  0  0  0  0  0  0  0  0  0
    0.8190   -1.0620   -0.2240 Cl  0  0  0  0  0  2  0  0  0  0  0  0
   -0.2760   -0.0000   -0.0710 Ru  0  0  0  0  0  0  0  0  0  0  0  0
    3.0197   -2.1586   -0.2136 P   0  3  0  0  0  0  0  0  0  0  0  0
    2.9933   -3.2380    1.2639 C   0  0  0  0  0  0  0  0  0  0  0  0
    4.1985   -3.6268    1.8250 C   0  0  0  0  0  0  0  0  0  0  0  0
    4.0815   -4.6816    2.7608 C   0  0  0  0  0  0  0  0  0  0  0  0
    2.9533   -5.0436    3.3441 C   0  0  0  0  0  0  0  0  0  0  0  0
    1.7996   -4.5710    2.7827 C   0  0  0  0  0  0  0  0  0  0  0  0
    1.8347   -3.6370    1.7756 C   0  0  0  0  0  0  0  0  0  0  0  0
    2.1925   -3.0104   -1.6062 C   0  0  0  0  0  0  0  0  0  0  0  0
    1.5511   -4.2274   -1.4449 C   0  0  0  0  0  0  0  0  0  0  0  0
    1.1064   -4.8061   -2.6571 C   0  0  0  0  0  0  0  0  0  0  0  0
    0.9618   -4.1476   -3.7927 C   0  0  0  0  0  0  0  0  0  0  0  0
    1.5619   -2.9213   -3.8652 C   0  0  0  0  0  0  0  0  0  0  0  0
    2.1328   -2.3472   -2.7550 C   0  0  0  0  0  0  0  0  0  0  0  0
   -1.4770   -0.0000    0.8690 C   0  0  0  0  0  0  0  0  0  0  0  0
   -2.0468    0.0000    2.2782 C   0  0  0  0  0  0  0  0  0  0  0  0
   -1.6880    0.0000   -0.6480 C   0  0  0  0  0  0  0  0  0  0  0  0
   -2.6206    0.0000   -1.8483 C   0  0  0  0  0  0  0  0  0  0  0  0
   -2.3306    3.3476    4.4718 C   0  0  0  0  0  0  0  0  0  0  0  0
   -2.8963    2.2815    5.3958 C   0  0  0  0  0  0  0  0  0  0  0  0
   -1.8382    2.9679    3.0848 C   0  0  0  0  0  0  0  0  0  0  0  0
   -1.2724    4.0341    2.1609 C   0  0  0  0  0  0  0  0  0  0  0  0
   -1.9038    1.6738    2.6704 C   0  0  0  0  0  0  0  0  0  0  0  0
   -2.4695    0.6077    3.5944 C   0  0  0  0  0  0  0  0  0  0  0  0
   -1.4114    1.2941    1.2834 C   0  0  0  0  0  0  0  0  0  0  0  0
   -0.8457    2.3602    0.3595 C   0  0  0  0  0  0  0  0  0  0  0  0
    2.2223    1.5434    1.8367 C   0  0  0  0  0  0  0  0  0  0  0  0
    1.1882    0.6984    2.5626 C   0  0  0  0  0  0  0  0  0  0  0  0
    3.5988    1.9685    2.0816 C   0  0  0  0  0  0  0  0  0  0  0  0
    4.7057    1.4809    1.1611 C   0  0  0  0  0  0  0  0  0  0  0  0
    3.8960    2.7633    3.0814 C   0  0  0  0  0  0  0  0  0  0  0  0
    5.3270    3.2070    3.3382 C   0  0  0  0  0  0  0  0  0  0  0  0
    2.6580    3.2631    4.0495 C   0  0  0  0  0  0  0  0  0  0  0  0
    2.8978    4.1856    5.2334 C   0  0  0  0  0  0  0  0  0  0  0  0
    1.2278    2.7454    3.6944 C   0  0  0  0  0  0  0  0  0  0  0  0
    0.0238    3.1499    4.5295 C   0  0  0  0  0  0  0  0  0  0  0  0
    1.0915    1.9560    2.6618 C   0  0  0  0  0  0  0  0  0  0  0  0
   -0.2967    1.4486    2.3069 C   0  0  0  0  0  0  0  0  0  0  0  0
    5.1333   -3.1708    1.5735 H   0  0  0  0  0  0  0  0  0  0  0  0
    4.9687   -5.2236    3.0135 H   0  0  0  0  0  0  0  0  0  0  0  0
    2.9427   -5.6728    4.2095 H   0  0  0  0  0  0  0  0  0  0  0  0
    0.8558   -4.9338    3.1327 H   0  0  0  0  0  0  0  0  0  0  0  0
    0.9203   -3.2274    1.4003 H   0  0  0  0  0  0  0  0  0  0  0  0
    1.4051   -4.6881   -0.4903 H   0  0  0  0  0  0  0  0  0  0  0  0
    0.8710   -5.8499   -2.6535 H   0  0  0  0  0  0  0  0  0  0  0  0
    0.4049   -4.5521   -4.6119 H   0  0  0  0  0  0  0  0  0  0  0  0
    1.5874   -2.4011   -4.7999 H   0  0  0  0  0  0  0  0  0  0  0  0
    2.5329   -1.3567   -2.8168 H   0  0  0  0  0  0  0  0  0  0  0  0
   -2.6481    0.8736    2.4197 H   0  0  0  0  0  0  0  0  0  0  0  0
   -2.6481   -0.8737    2.4197 H   0  0  0  0  0  0  0  0  0  0  0  0
   -1.2453    0.0000    2.9870 H   0  0  0  0  0  0  0  0  0  0  0  0
   -3.2377   -0.8736   -1.8205 H   0  0  0  0  0  0  0  0  0  0  0  0
   -3.2377    0.8737   -1.8205 H   0  0  0  0  0  0  0  0  0  0  0  0
   -2.0428    0.0000   -2.7489 H   0  0  0  0  0  0  0  0  0  0  0  0
   -3.7476    1.8255    4.9351 H   0  0  0  0  0  0  0  0  0  0  0  0
   -2.1499    1.5376    5.5812 H   0  0  0  0  0  0  0  0  0  0  0  0
   -3.1896    2.7309    6.3215 H   0  0  0  0  0  0  0  0  0  0  0  0
   -0.2605    3.7905    1.9127 H   0  0  0  0  0  0  0  0  0  0  0  0
   -1.8583    4.0784    1.2666 H   0  0  0  0  0  0  0  0  0  0  0  0
   -1.3003    4.9838    2.6530 H   0  0  0  0  0  0  0  0  0  0  0  0
   -3.3208    0.1517    3.1337 H   0  0  0  0  0  0  0  0  0  0  0  0
   -1.7231   -0.1362    3.7797 H   0  0  0  0  0  0  0  0  0  0  0  0
   -2.7628    1.0570    4.5201 H   0  0  0  0  0  0  0  0  0  0  0  0
    0.1662    2.1167    0.1112 H   0  0  0  0  0  0  0  0  0  0  0  0
   -1.4315    2.4046   -0.5348 H   0  0  0  0  0  0  0  0  0  0  0  0
   -0.8735    3.3100    0.8516 H   0  0  0  0  0  0  0  0  0  0  0  0
    0.2750    0.6954    2.0050 H   0  0  0  0  0  0  0  0  0  0  0  0
    1.5505   -0.3037    2.6592 H   0  0  0  0  0  0  0  0  0  0  0  0
    1.0111    1.1088    3.5348 H   0  0  0  0  0  0  0  0  0  0  0  0
    5.1810    2.3207    0.6988 H   0  0  0  0  0  0  0  0  0  0  0  0
    5.4266    0.9316    1.7300 H   0  0  0  0  0  0  0  0  0  0  0  0
    4.2888    0.8470    0.4066 H   0  0  0  0  0  0  0  0  0  0  0  0
    5.9402    2.3483    3.5159 H   0  0  0  0  0  0  0  0  0  0  0  0
    5.6946    3.7373    2.4847 H   0  0  0  0  0  0  0  0  0  0  0  0
    5.3535    3.8476    4.1949 H   0  0  0  0  0  0  0  0  0  0  0  0
    3.5703    3.7163    5.9208 H   0  0  0  0  0  0  0  0  0  0  0  0
    3.3239    5.1047    4.8889 H   0  0  0  0  0  0  0  0  0  0  0  0
    1.9681    4.3853    5.7241 H   0  0  0  0  0  0  0  0  0  0  0  0
    0.1645    2.8246    5.5391 H   0  0  0  0  0  0  0  0  0  0  0  0
   -0.0829    4.2144    4.5093 H   0  0  0  0  0  0  0  0  0  0  0  0
   -0.8577    2.6954    4.1279 H   0  0  0  0  0  0  0  0  0  0  0  0
   -0.6931    0.8898    3.1288 H   0  0  0  0  0  0  0  0  0  0  0  0
   -0.9377    2.2797    2.0985 H   0  0  0  0  0  0  0  0  0  0  0  0
   -0.2365    0.8193    1.4436 H   0  0  0  0  0  0  0  0  0  0  0  0
  1  2  1  0  0  0  0
  1  4  1  0  0  0  0
  2  3  1  0  0  0  0
  2  4  1  0  0  0  0
  2  5  1  0  0  0  0
  2 30  1  0  0  0  0
  2 32  1  0  0  0  0
  2 34  1  0  0  0  0
  2 36  1  0  0  0  0
  2 38  1  0  0  0  0
  2 40  1  0  0  0  0
  3  4  1  0  0  0  0
  4  5  1  0  0  0  0
  4 18  1  0  0  0  0
  4 20  1  0  0  0  0
  4 22  1  0  0  0  0
  4 24  1  0  0  0  0
  4 26  1  0  0  0  0
  4 28  1  0  0  0  0
  5  6  1  0  0  0  0
  5 12  1  0  0  0  0
  6  7  1  0  0  0  0
  6 11  2  0  0  0  0
  7  8  2  0  0  0  0
  7 42  1  0  0  0  0
  8  9  1  0  0  0  0
  8 43  1  0  0  0  0
  9 10  2  0  0  0  0
  9 44  1  0  0  0  0
 10 11  1  0  0  0  0
 10 45  1  0  0  0  0
 11 46  1  0  0  0  0
 12 13  1  0  0  0  0
 12 17  2  0  0  0  0
 13 14  2  0  0  0  0
 13 47  1  0  0  0  0
 14 15  1  0  0  0  0
 14 48  1  0  0  0  0
 15 16  2  0  0  0  0
 15 49  1  0  0  0  0
 16 17  1  0  0  0  0
 16 50  1  0  0  0  0
 17 51  1  0  0  0  0
 18 19  1  0  0  0  0
 18 20  1  0  0  0  0
 18 28  2  0  0  0  0
 19 52  1  0  0  0  0
 19 53  1  0  0  0  0
 19 54  1  0  0  0  0
 20 21  1  0  0  0  0
 20 22  2  0  0  0  0
 21 55  1  0  0  0  0
 21 56  1  0  0  0  0
 21 57  1  0  0  0  0
 22 23  1  0  0  0  0
 22 24  1  0  0  0  0
 23 58  1  0  0  0  0
 23 59  1  0  0  0  0
 23 60  1  0  0  0  0
 24 25  1  0  0  0  0
 24 26  2  0  0  0  0
 25 61  1  0  0  0  0
 25 62  1  0  0  0  0
 25 63  1  0  0  0  0
 26 27  1  0  0  0  0
 26 28  1  0  0  0  0
 27 64  1  0  0  0  0
 27 65  1  0  0  0  0
 27 66  1  0  0  0  0
 28 29  1  0  0  0  0
 29 67  1  0  0  0  0
 29 68  1  0  0  0  0
 29 69  1  0  0  0  0
 30 31  1  0  0  0  0
 30 32  1  0  0  0  0
 30 40  2  0  0  0  0
 31 70  1  0  0  0  0
 31 71  1  0  0  0  0
 31 72  1  0  0  0  0
 32 33  1  0  0  0  0
 32 34  2  0  0  0  0
 33 73  1  0  0  0  0
 33 74  1  0  0  0  0
 33 75  1  0  0  0  0
 34 35  1  0  0  0  0
 34 36  1  0  0  0  0
 35 76  1  0  0  0  0
 35 77  1  0  0  0  0
 35 78  1  0  0  0  0
 36 37  1  0  0  0  0
 36 38  2  0  0  0  0
 37 79  1  0  0  0  0
 37 80  1  0  0  0  0
 37 81  1  0  0  0  0
 38 39  1  0  0  0  0
 38 40  1  0  0  0  0
 39 82  1  0  0  0  0
 39 83  1  0  0  0  0
 39 84  1  0  0  0  0
 40 41  1  0  0  0  0
 41 85  1  0  0  0  0
 41 86  1  0  0  0  0
 41 87  1  0  0  0  0
M  CHG  1   5   1
M  END
$$$$
