
 OpenBabel09252513483D

 53 64  0  0  1  0  0  0  0  0999 V2000
    1.0689   -0.0190    0.0700 H   0  0  0  0  0  0  0  0  0  0  0  0
    2.1389   -0.0190    0.0700 C   0  0  0  0  0  0  0  0  0  0  0  0
    2.4956    0.9885    0.1216 H   0  0  0  0  0  0  0  0  0  0  0  0
    2.4955   -0.5675    0.9167 H   0  0  0  0  0  0  0  0  0  0  0  0
    2.6455   -0.6711   -1.2062 C   0  0  0  0  0  0  0  0  0  0  0  0
    3.0659   -1.2121   -2.2648 N   0  0  0  0  0  4  0  0  0  0  0  0
    3.7892   -2.1430   -4.0866 Ru  0  0  0  0  0  0  0  0  0  0  0  0
    2.0148   -0.9212   -4.6226 C   0  0  0  0  0  0  0  0  0  0  0  0
    0.8882   -0.4973   -4.8086 O   0  0  0  0  0  0  0  0  0  0  0  0
    4.1274   -3.6171   -3.8421 Br  0  0  0  0  0  2  0  0  0  0  0  0
    3.1847   -4.1587   -2.8520 Ru  0  3  0  0  0  0  0  0  0  0  0  0
    2.4591   -6.2479   -3.0449 C   0  0  0  0  0  0  0  0  0  0  0  0
    1.5000   -6.9956   -3.1139 O   0  0  0  0  0  0  0  0  0  0  0  0
    2.0061   -5.9102   -2.3501 N   0  0  0  0  0  4  0  0  0  0  0  0
    1.2994   -6.9142   -2.0624 C   0  0  0  0  0  0  0  0  0  0  0  0
    0.4475   -8.1243   -1.7156 C   0  0  0  0  0  0  0  0  0  0  0  0
    0.0616   -8.0164   -0.7235 H   0  0  0  0  0  0  0  0  0  0  0  0
   -0.3649   -8.1989   -2.4080 H   0  0  0  0  0  0  0  0  0  0  0  0
    1.0459   -9.0095   -1.7713 H   0  0  0  0  0  0  0  0  0  0  0  0
    2.4323   -3.9826    0.6794 C   0  0  2  0  0  0  0  0  0  0  0  0
    2.0156   -3.9433    1.6641 H   0  0  0  0  0  0  0  0  0  0  0  0
    3.8916   -3.9172    0.5389 C   0  0  1  0  0  0  0  0  0  0  0  0
    4.3790   -3.9759    1.4897 H   0  0  0  0  0  0  0  0  0  0  0  0
    4.2497   -3.6124   -0.7219 C   0  0  1  0  0  0  0  0  0  0  0  0
    3.0199   -3.4553   -1.5802 C   0  0  1  0  0  0  0  0  0  0  0  0
    1.8847   -4.0999   -0.7614 C   0  0  2  0  0  0  0  0  0  0  0  0
    0.8917   -4.3884   -0.4864 H   0  0  0  0  0  0  0  0  0  0  0  0
    2.7151   -1.9775   -1.8341 C   0  0  0  0  0  0  0  0  0  0  0  0
    2.9232   -0.6629   -1.1000 C   0  0  0  0  0  0  0  0  0  0  0  0
    3.9605   -0.5252   -0.8764 H   0  0  0  0  0  0  0  0  0  0  0  0
    2.5813    0.1421   -1.7164 H   0  0  0  0  0  0  0  0  0  0  0  0
    2.3612   -0.6788   -0.1897 H   0  0  0  0  0  0  0  0  0  0  0  0
    1.2496   -2.3748   -1.9036 C   0  0  0  0  0  0  0  0  0  0  0  0
    0.7705   -1.4582   -2.1779 H   0  0  0  0  0  0  0  0  0  0  0  0
    1.0103   -3.1311   -2.6217 H   0  0  0  0  0  0  0  0  0  0  0  0
    0.9082   -2.6803   -0.9367 H   0  0  0  0  0  0  0  0  0  0  0  0
    3.7918   -1.3914   -2.7528 C   0  0  1  0  0  0  0  0  0  0  0  0
    2.9205   -0.0270   -0.8253 C   0  0  2  0  0  0  0  0  0  0  0  0
    2.4779    0.6726   -0.1474 H   0  0  0  0  0  0  0  0  0  0  0  0
    3.8367   -1.1998   -1.1342 C   0  0  2  0  0  0  0  0  0  0  0  0
    3.4546   -2.0378   -0.5896 H   0  0  0  0  0  0  0  0  0  0  0  0
    5.2466   -0.8784   -0.6659 C   0  0  2  0  0  0  0  0  0  0  0  0
    5.6144   -0.1886    0.0647 H   0  0  0  0  0  0  0  0  0  0  0  0
    6.1628   -2.0512   -0.9749 C   0  0  1  0  0  0  0  0  0  0  0  0
    5.6596   -3.2910   -0.2536 C   0  0  0  0  0  0  0  0  0  0  0  0
    6.8227   -3.9759    0.4452 C   0  0  0  0  0  0  0  0  0  0  0  0
    6.9659   -4.9464    0.0181 H   0  0  0  0  0  0  0  0  0  0  0  0
    7.7233   -3.4065    0.3468 H   0  0  0  0  0  0  0  0  0  0  0  0
    6.5750   -4.0752    1.4814 H   0  0  0  0  0  0  0  0  0  0  0  0
    5.0108   -3.8815    0.9877 C   0  0  0  0  0  0  0  0  0  0  0  0
    3.9857   -3.5747    0.9901 H   0  0  0  0  0  0  0  0  0  0  0  0
    5.0634   -4.9497    0.9546 H   0  0  0  0  0  0  0  0  0  0  0  0
    5.4909   -3.5281    1.8763 H   0  0  0  0  0  0  0  0  0  0  0  0
  1  2  1  0  0  0  0
  2  3  1  0  0  0  0
  2  4  1  0  0  0  0
  2  5  1  0  0  0  0
  5  6  3  0  0  0  0
  6  7  1  0  0  0  0
  7 10  1  0  0  0  0
  7 37  1  0  0  0  0
  7 38  1  0  0  0  0
  7 40  1  0  0  0  0
  7 42  1  0  0  0  0
  7 44  1  0  0  0  0
  7  8  1  0  0  0  0
  8  9  3  0  0  0  0
 10 11  1  0  0  0  0
 11 20  1  0  0  0  0
 11 22  1  0  0  0  0
 11 24  1  0  0  0  0
 11 25  1  0  0  0  0
 11 26  1  0  0  0  0
 11 12  1  0  0  0  0
 11 14  1  0  0  0  0
 12 13  3  0  0  0  0
 14 15  3  0  0  0  0
 15 16  1  0  0  0  0
 16 17  1  0  0  0  0
 16 18  1  0  0  0  0
 16 19  1  0  0  0  0
 20 22  1  0  0  0  0
 20 26  1  0  0  0  0
 20 21  1  6  0  0  0
 22 24  1  0  0  0  0
 22 23  1  6  0  0  0
 24 25  1  0  0  0  0
 24 45  1  1  0  0  0
 25 26  1  0  0  0  0
 25 28  1  1  0  0  0
 26 27  1  1  0  0  0
 28 29  1  0  0  0  0
 28 33  1  0  0  0  0
 29 30  1  0  0  0  0
 29 31  1  0  0  0  0
 29 32  1  0  0  0  0
 33 34  1  0  0  0  0
 33 35  1  0  0  0  0
 33 36  1  0  0  0  0
 37 28  1  6  0  0  0
 37 38  1  0  0  0  0
 37 44  1  0  0  0  0
 38 40  1  0  0  0  0
 38 39  1  1  0  0  0
 40 42  1  0  0  0  0
 40 41  1  1  0  0  0
 42 44  1  0  0  0  0
 42 43  1  6  0  0  0
 44 45  1  6  0  0  0
 45 46  1  0  0  0  0
 45 50  1  0  0  0  0
 46 47  1  0  0  0  0
 46 48  1  0  0  0  0
 46 49  1  0  0  0  0
 50 51  1  0  0  0  0
 50 52  1  0  0  0  0
 50 53  1  0  0  0  0
M  CHG  1  11   1
M  END
$$$$
