
  --CCDC--092525    3D                              

 53 64  0  0  0  0  0  0  0  0999 V2000
    5.9365    4.6539    0.3908 H      0
    6.7111    3.8972    0.4977 C      0
    7.4368    4.0435   -0.2977 H      0
    7.2087    4.0556    1.4513 H      0
    6.1360    2.5621    0.4323 C      0
    5.6168    1.5476    0.3720 N      0
    4.5986   -0.3345    0.3215 Ru     0
    3.6169    1.2919    1.3193 C      0
    3.1199    2.1896    1.8195 O      0
    3.3631    1.6048   -1.0017 Br     0
    1.3483   -0.0783   -0.8128 Ru     3
    1.0623    0.7924   -2.7465 C      0
    0.9099    1.2565   -3.7770 O      0
    2.9278   -0.0791   -2.2619 N      0
    3.7188    0.1306   -3.0584 C      0
    4.7692    0.4933   -4.0018 C      0
    5.1500   -0.3829   -4.5219 H      0
    5.6013    0.9705   -3.4841 H      0
    4.3940    1.1957   -4.7447 H      0
   -0.5191    0.0373   -0.1679 C      0
   -0.4719    0.8467   -0.9680 H      0
    0.4647    0.3506    0.9856 C      0
    1.0181    1.2959    1.3017 H      0
    1.4214   -0.8240    1.1278 C      0
    1.1083   -1.8374    0.0922 C      0
   -0.1542   -1.3595   -0.6809 C      0
    0.0740   -1.2457   -1.7969 H      0
    2.3283   -2.2465   -0.7939 C      0
    2.2451   -3.7486   -0.4540 C      0
    2.6696   -4.0115    0.5087 H      0
    2.7893   -4.3285   -1.1952 H      0
    1.2146   -4.0969   -0.4460 H      0
    2.0223   -2.6158   -2.2670 C      0
    1.3408   -3.4599   -2.3005 H      0
    2.9309   -2.9155   -2.7797 H      0
    1.5441   -1.8539   -2.8684 H      0
    3.8509   -2.1641   -0.3683 C      0
    5.2044   -1.8247   -0.9613 C      0
    5.0352   -1.3698   -1.9926 H      0
    6.1848   -1.5223    0.2015 C      0
    6.6390   -0.4839    0.1072 H      0
    5.4008   -1.7325    1.4861 C      0
    5.4716   -0.7478    2.0642 H      0
    3.9293   -2.0529    1.1043 C      0
    2.8430   -1.1329    1.7415 C      0
    2.2549   -2.3026    2.5650 C      0
    1.7671   -3.0732    1.9832 H      0
    1.4909   -1.9456    3.2540 H      0
    3.0282   -2.8205    3.1298 H      0
    3.1584   -0.4576    3.1063 C      0
    4.1560   -0.0422    3.1943 H      0
    3.0894   -1.1433    3.9454 H      0
    2.4407    0.3349    3.3067 H      0
  1  2  1
  2  3  1
  2  4  1
  2  5  1
  5  6  3
  6  7  1
  7  8  1
  8  9  3
  7 10  1
 10 11  1
 11 12  1
 12 13  3
 11 14  1
 14 15  3
 15 16  1
 16 17  1
 16 18  1
 16 19  1
 11 20  1
 20 21  1
 20 22  4
 11 22  1
 22 23  1
 22 24  4
 11 24  1
 24 25  4
 11 25  1
 25 26  4
 20 26  4
 11 26  1
 26 27  1
 25 28  1
 28 29  1
 29 30  1
 29 31  1
 29 32  1
 28 33  1
 33 34  1
 33 35  1
 33 36  1
 28 37  1
  7 37  1
 37 38  4
  7 38  1
 38 39  1
 38 40  4
  7 40  1
 40 41  1
 40 42  4
  7 42  1
 42 43  1
 42 44  4
 37 44  4
  7 44  1
 44 45  1
 24 45  1
 45 46  1
 46 47  1
 46 48  1
 46 49  1
 45 50  1
 50 51  1
 50 52  1
 50 53  1
M  CHG  1  11   1
M  END
$$$$
