
  --CCDC--092525    3D                              

 57 64  0  0  0  0  0  0  0  0999 V2000
    2.9688    1.8158    2.3743 C      0
    3.4810    1.2860    1.1210 C      0
    3.8818    0.8713    0.1400 N      0
    4.6315   -0.0242   -1.7187 Fe     1
    6.2623   -0.5271   -0.3298 N      0
    7.1214   -0.7522    0.3870 C      0
    8.2961   -1.0206    1.2066 C      0
    5.7829   -1.5416   -2.8285 C      0
    6.0185   -2.6318   -1.9273 N      0
    4.8924   -3.2331   -1.2237 C      0
    3.7331   -2.9034   -2.0189 N      0
    3.1867   -3.6708   -3.0483 C      0
    2.2116   -2.9310   -3.5822 C      0
    2.1878   -1.7235   -2.8693 N      0
    1.2725   -0.6123   -3.0478 C      0
    2.0221    0.5726   -3.4330 N      0
    1.8807    1.2956   -4.6213 C      0
    2.6487    2.3866   -4.4971 C      0
    3.2435    2.3191   -3.2268 N      0
    4.2155    3.2128   -2.6231 C      0
    5.3846    2.6532   -3.2554 N      0
    5.9772    3.0919   -4.4381 C      0
    6.8647    2.1544   -4.7750 C      0
    6.8044    1.1426   -3.8032 N      0
    7.5846   -0.0922   -3.8886 C      0
    7.1543   -1.2528   -3.1111 N      0
    8.0514   -2.1902   -2.5780 C      0
    7.3452   -3.0513   -1.8472 C      0
    5.9537    1.4774   -2.7026 C      0
    2.9132    1.1584   -2.4958 C      0
    3.1191   -1.6495   -1.7958 C      0
    2.7280    2.8735    2.2827 H      0
    3.7237    1.6918    3.1482 H      0
    2.0651    1.2918    2.6869 H      0
    8.1043   -0.8204    2.2586 H      0
    9.1195   -0.3843    0.8900 H      0
    8.6181   -2.0568    1.1061 H      0
    5.0068   -4.3214   -1.1624 H      0
    4.7932   -2.8332   -0.2061 H      0
    3.5113   -4.6566   -3.3677 H      0
    1.5719   -3.2092   -4.4139 H      0
    0.5262   -0.8564   -3.8141 H      0
    0.7332   -0.4243   -2.1105 H      0
    1.2583    1.0249   -5.4713 H      0
    2.7861    3.1629   -5.2457 H      0
    4.0615    4.2607   -2.9089 H      0
    4.2617    3.1096   -1.5315 H      0
    5.7143    3.9794   -5.0037 H      0
    7.4803    2.1560   -5.6680 H      0
    7.6493   -0.3874   -4.9437 H      0
    8.6096    0.1469   -3.5759 H      0
    9.1293   -2.2013   -2.7063 H      0
    7.7322   -3.8865   -1.2726 H      0
    5.2481   -1.8780   -3.7285 H      0
    6.6275    1.8281   -1.9043 H      0
    2.3088    1.4704   -1.6291 H      0
    2.5675   -1.6622   -0.8425 H      0
  1  2  1
  2  3  3
  3  4  1
  4  5  1
  5  6  3
  6  7  1
  4  8  1
  8  9  1
  9 10  1
 10 11  1
 11 12  1
 12 13  2
 13 14  1
 14 15  1
 15 16  1
 16 17  1
 17 18  2
 18 19  1
 19 20  1
 20 21  1
 21 22  1
 22 23  2
 23 24  1
 24 25  1
 25 26  1
  8 26  1
 26 27  1
 27 28  2
  9 28  1
 24 29  1
  4 29  1
 21 29  1
 19 30  1
  4 30  1
 16 30  1
 14 31  1
  4 31  1
 11 31  1
  1 32  1
  1 33  1
  1 34  1
  7 35  1
  7 36  1
  7 37  1
 10 38  1
 10 39  1
 12 40  1
 13 41  1
 15 42  1
 15 43  1
 17 44  1
 18 45  1
 20 46  1
 20 47  1
 22 48  1
 23 49  1
 25 50  1
 25 51  1
 27 52  1
 28 53  1
  8 54  1
 29 55  1
 30 56  1
 31 57  1
M  CHG  1   4   3
M  END
$$$$
