
     RDKit          3D

  0  0  0  0  0  0  0  0  0  0999 V3000
M  V30 BEGIN CTAB
M  V30 COUNTS 53 60 0 0 0
M  V30 BEGIN ATOM
M  V30 1 C 2.950110 -0.064564 3.937788 0
M  V30 2 C 2.203270 0.010209 2.767227 0
M  V30 3 N 1.540347 0.068688 1.765695 0
M  V30 4 Fe 0.369101 0.143182 0.041030 0 CHG=3 VAL=6
M  V30 5 N 2.085040 1.017525 -0.737176 0
M  V30 6 C 3.093133 1.535021 -1.171960 0
M  V30 7 C 4.256071 2.121567 -1.647270 0
M  V30 8 C -1.012911 1.494687 -0.817101 0 RAD=2 VAL=3
M  V30 9 N -1.047282 2.835841 -0.352899 0
M  V30 10 C -1.283066 3.227190 0.999176 0
M  V30 11 N -1.571799 1.942206 1.656920 0
M  V30 12 C -2.066206 1.630454 2.980513 0
M  V30 13 C -2.412404 0.330362 2.962530 0
M  V30 14 N -2.148204 -0.207760 1.639365 0
M  V30 15 C -2.653439 -1.482252 1.172233 0
M  V30 16 N -1.388315 -2.151444 0.950664 0
M  V30 17 C -0.986126 -3.383483 1.601973 0
M  V30 18 C 0.153945 -3.829125 1.099535 0
M  V30 19 N 0.537227 -2.910741 0.108283 0
M  V30 20 C 1.549503 -2.673806 -0.943615 0
M  V30 21 N 0.687761 -2.181285 -2.006742 0
M  V30 22 C 0.155327 -2.586163 -3.259419 0
M  V30 23 C -0.787659 -1.706041 -3.557697 0
M  V30 24 N -0.916013 -0.703212 -2.540528 0
M  V30 25 C -2.021130 0.242896 -2.517327 0
M  V30 26 N -1.370658 1.454993 -2.070439 0
M  V30 27 C -0.981315 2.727221 -2.637849 0
M  V30 28 C -0.790616 3.547631 -1.587032 0
M  V30 29 C 0.156574 -0.891908 -1.778626 0 RAD=2 VAL=3
M  V30 30 C -0.404924 -1.834822 0.173868 0 RAD=2 VAL=3
M  V30 31 C -1.407777 0.706094 1.077632 0 RAD=2 VAL=3
M  V30 32 H 3.820636 -0.743362 3.759473 0
M  V30 33 H 3.276256 0.979142 4.219484 0
M  V30 34 H 2.418678 -0.467038 4.826653 0
M  V30 35 H 4.065976 2.595777 -2.626558 0
M  V30 36 H 4.684241 2.918269 -0.984352 0
M  V30 37 H 5.091620 1.359648 -1.735851 0
M  V30 38 H -0.477874 3.784037 1.486208 0
M  V30 39 H -2.193774 3.879835 1.000916 0
M  V30 40 H -2.141790 2.328010 3.832006 0
M  V30 41 H -2.819155 -0.104519 3.892974 0
M  V30 42 H -3.145884 -1.324836 0.178465 0
M  V30 43 H -3.311815 -2.004470 1.877706 0
M  V30 44 H -1.402483 -4.017265 2.399106 0
M  V30 45 H 0.781050 -4.685973 1.293799 0
M  V30 46 H 2.240765 -1.893113 -0.596670 0
M  V30 47 H 2.010770 -3.645390 -1.163612 0
M  V30 48 H 0.542525 -3.464584 -3.757805 0
M  V30 49 H -1.314643 -1.853605 -4.488755 0
M  V30 50 H -2.440821 0.489971 -3.509958 0
M  V30 51 H -2.803426 -0.078302 -1.809934 0
M  V30 52 H -0.883460 2.915504 -3.718134 0
M  V30 53 H -0.484955 4.603100 -1.683911 0
M  V30 END ATOM
M  V30 BEGIN BOND
M  V30 1 1 1 2
M  V30 2 3 2 3
M  V30 3 9 3 4
M  V30 4 9 5 4
M  V30 5 3 5 6
M  V30 6 1 6 7
M  V30 7 1 4 8
M  V30 8 1 8 9
M  V30 9 1 9 10
M  V30 10 1 10 11
M  V30 11 1 11 12
M  V30 12 2 12 13
M  V30 13 1 13 14
M  V30 14 1 14 15
M  V30 15 1 15 16
M  V30 16 1 16 17
M  V30 17 2 17 18
M  V30 18 1 18 19
M  V30 19 1 19 20
M  V30 20 1 20 21
M  V30 21 1 21 22
M  V30 22 2 22 23
M  V30 23 1 23 24
M  V30 24 1 24 25
M  V30 25 1 25 26
M  V30 26 1 26 27
M  V30 27 2 27 28
M  V30 28 1 24 29
M  V30 29 1 19 30
M  V30 30 1 14 31
M  V30 31 1 29 4
M  V30 32 1 30 4
M  V30 33 1 31 4
M  V30 34 1 26 8
M  V30 35 1 28 9
M  V30 36 1 31 11
M  V30 37 1 30 16
M  V30 38 1 29 21
M  V30 39 1 1 32
M  V30 40 1 1 33
M  V30 41 1 1 34
M  V30 42 1 7 35
M  V30 43 1 7 36
M  V30 44 1 7 37
M  V30 45 1 10 38
M  V30 46 1 10 39
M  V30 47 1 12 40
M  V30 48 1 13 41
M  V30 49 1 15 42
M  V30 50 1 15 43
M  V30 51 1 17 44
M  V30 52 1 18 45
M  V30 53 1 20 46
M  V30 54 1 20 47
M  V30 55 1 22 48
M  V30 56 1 23 49
M  V30 57 1 25 50
M  V30 58 1 25 51
M  V30 59 1 27 52
M  V30 60 1 28 53
M  V30 END BOND
M  V30 END CTAB
M  END
