
  --CCDC--092525    3D                              

 42 41  0  0  0  0  0  0  0  0999 V2000
    0.0000    0.0000    0.0000 C      0
    1.9234    0.0000   -0.6800 Pt     0
    2.5091   -1.0359    0.9769 C      0
    2.2500    1.7665    0.2866 C      0
    1.5969   -1.7665   -1.6466 N      0
    0.5306   -1.9518   -2.2830 N      3
   -0.3848   -2.2575   -2.8956 N      5
    4.2009    0.0293   -1.4673 P      0
    4.5267   -1.4344   -2.4788 C      0
    5.3424    0.0368   -0.0642 C      0
    4.4930    1.5082   -2.4670 C      0
    1.2241    1.1865   -2.6577 P      0
   -0.5569    0.9868   -2.9045 C      0
    2.0268    0.4538   -4.1040 C      0
    1.5868    2.9592   -2.6579 C      0
   -0.4993    0.9107   -0.3241 H      0
   -0.5262   -0.8641   -0.4002 H      0
   -0.0004   -0.0466    1.0870 H      0
    1.6940   -1.6734    1.3131 H      0
    2.7724   -0.3365    1.7676 H      0
    3.3734   -1.6504    0.7336 H      0
    1.3003    2.2719    0.4494 H      0
    2.8972    2.3972   -0.3193 H      0
    2.7266    1.5727    1.2452 H      0
    3.6303   -1.7408   -3.0139 H      0
    4.8525   -2.2670   -1.8588 H      0
    5.3057   -1.2318   -3.2108 H      0
    5.2014   -0.8484    0.5524 H      0
    5.1812    0.9135    0.5595 H      0
    6.3749    0.0500   -0.4071 H      0
    4.2280    1.4002   -3.5089 H      0
    5.5502    1.7636   -2.4397 H      0
    3.9415    2.3547   -2.0632 H      0
   -0.9418    0.0806   -2.4602 H      0
   -0.7872    0.9587   -3.9675 H      0
   -1.1018    1.8245   -2.4760 H      0
    1.3682   -0.3064   -4.5186 H      0
    2.9576   -0.0521   -3.9141 H      0
    2.1825    1.2011   -4.8793 H      0
    0.8044    3.4953   -3.1909 H      0
    1.6131    3.3421   -1.6398 H      0
    2.5235    3.2119   -3.1362 H      0
  1  2  1
  2  3  1
  2  4  1
  2  5  1
  5  6  2
  6  7  2
  2  8  1
  8  9  1
  8 10  1
  8 11  1
  2 12  1
 12 13  1
 12 14  1
 12 15  1
  1 16  1
  1 17  1
  1 18  1
  3 19  1
  3 20  1
  3 21  1
  4 22  1
  4 23  1
  4 24  1
  9 25  1
  9 26  1
  9 27  1
 10 28  1
 10 29  1
 10 30  1
 11 31  1
 11 32  1
 11 33  1
 13 34  1
 13 35  1
 13 36  1
 14 37  1
 14 38  1
 14 39  1
 15 40  1
 15 41  1
 15 42  1
M  CHG  2   6   1   7  -1
M  END
$$$$
