
  --CCDC--092525    3D                              

 75 79  0  0  0  0  0  0  0  0999 V2000
   -1.6407    1.7795   -0.5153 H      0
   -0.7176    2.3028   -0.2886 C      0
   -0.0746    3.0367   -1.2605 C      0
   -0.4985    3.0495   -2.2592 H      0
    1.0840    3.7373   -1.0374 C      0
    1.6265    3.8085    0.3021 C      0
    1.0144    2.9336    1.2428 C      0
   -0.1669    2.2188    0.9440 C      0
   -0.6300    1.5968    1.7029 H      0
    1.6073    2.7573    2.4734 C      0
    1.1828    2.0446    3.1726 H      0
    2.7343    3.4653    2.8286 C      0
    3.3467    3.1898    4.0715 C      0
    2.9625    2.3925    4.6991 H      0
    4.4070    3.9212    4.4839 C      0
    4.8953    3.6983    5.4268 H      0
    4.8432    4.9679    3.7026 C      0
    5.6668    5.5725    4.0679 H      0
    4.2830    5.2965    2.4939 C      0
    3.2267    4.4695    1.9479 C      0
    2.6610    4.6014    0.7110 N      0
    3.3793    6.0959   -0.5693 Ir     0
    4.9249    5.6117   -0.3269 H      0
    3.7667    7.2450   -1.6732 H      0
    1.1148    6.8787   -0.7432 Cl     0
    3.4228    4.5031   -2.4439 P      0
    4.2610    2.9028   -2.2178 C      0
    4.0683    2.3091   -3.1248 H      0
    3.7707    2.0708   -1.0329 C      0
    2.7306    1.7815   -1.1594 H      0
    3.8644    2.6272   -0.1027 H      0
    4.3574    1.1592   -0.9403 H      0
    5.7783    3.0114   -2.0810 C      0
    6.2045    2.0545   -1.7870 H      0
    6.0507    3.7493   -1.3293 H      0
    6.2296    3.2973   -3.0279 H      0
    4.4512    5.5874   -3.4842 C      0
    3.8403    6.4767   -3.7035 H      0
    4.7736    4.9176   -4.8228 C      0
    3.8737    4.7257   -5.4032 H      0
    5.2835    3.9694   -4.6655 H      0
    5.4242    5.5536   -5.4195 H      0
    5.7739    6.1157   -2.9083 C      0
    6.3614    6.5624   -3.7077 H      0
    5.6273    6.8871   -2.1589 H      0
    6.3846    5.3352   -2.4686 H      0
    1.6334    4.2859   -2.3327 C      0
    1.1311    5.2228   -2.5921 H      0
    1.3455    3.5854   -3.1264 H      0
    3.6981    7.7209    1.2442 P      0
    2.2304    8.0803    2.2482 C      0
    1.5777    8.7385    1.6540 H      0
    2.6117    8.8236    3.5299 C      0
    1.7228    9.0966    4.0947 H      0
    3.1638    9.7336    3.3085 H      0
    3.2356    8.1979    4.1648 H      0
    1.4121    6.8541    2.6538 C      0
    1.1997    6.2175    1.7988 H      0
    1.9485    6.2639    3.3932 H      0
    0.4643    7.1563    3.0944 H      0
    4.9039    9.0548    1.4788 C      0
    5.1440    9.1193    2.5514 H      0
    4.3143   10.3981    1.0420 C      0
    3.3478   10.5748    1.5080 H      0
    4.1768   10.4279   -0.0369 H      0
    4.9772   11.2154    1.3179 H      0
    6.2080    8.8544    0.7002 C      0
    6.8545    8.1120    1.1613 H      0
    6.7655    9.7877    0.6546 H      0
    6.0013    8.5392   -0.3205 H      0
    4.8932    6.5683    1.9558 C      0
    5.3739    7.0765    2.8008 H      0
    5.7021    6.3457    1.2522 H      0
    2.8337    4.6105   -3.7081 H      0
    3.7073    8.4724    0.0634 H      0
  1  2  1
  2  3  4
  3  4  1
  3  5  4
  5  6  4
  6  7  4
  7  8  4
  2  8  4
  8  9  1
  7 10  4
 10 11  1
 10 12  4
 12 13  4
 13 14  1
 13 15  4
 15 16  1
 15 17  4
 17 18  1
 17 19  4
 19 20  4
 12 20  4
 20 21  4
  6 21  4
 21 22  1
 22 23  1
 22 24  1
 22 25  1
 22 26  1
 26 27  1
 27 28  1
 27 29  1
 29 30  1
 29 31  1
 29 32  1
 27 33  1
 33 34  1
 33 35  1
 33 36  1
 26 37  1
 37 38  1
 37 39  1
 39 40  1
 39 41  1
 39 42  1
 37 43  1
 43 44  1
 43 45  1
 43 46  1
 26 47  1
  5 47  1
 47 48  1
 47 49  1
 22 50  1
 50 51  1
 51 52  1
 51 53  1
 53 54  1
 53 55  1
 53 56  1
 51 57  1
 57 58  1
 57 59  1
 57 60  1
 50 61  1
 61 62  1
 61 63  1
 63 64  1
 63 65  1
 63 66  1
 61 67  1
 67 68  1
 67 69  1
 67 70  1
 50 71  1
 19 71  1
 71 72  1
 71 73  1
 26 74  1
 50 75  1
M  END
$$$$
