
     RDKit          3D

 26 26  0  0  0  0  0  0  0  0999 V2000
    3.4896   -0.7735    1.1230 C   0  0  0  0  0  0  0  0  0  0  0  0
    2.8688   -0.1175   -0.1042 C   0  0  0  0  0  0  0  0  0  0  0  0
    3.3475    1.3227   -0.2470 C   0  0  0  0  0  0  0  0  0  0  0  0
    1.4407   -0.1341    0.0834 O   0  0  0  0  0  0  0  0  0  0  0  0
    0.6905   -0.0871   -1.0442 C   0  0  0  0  0  0  0  0  0  0  0  0
    1.1109   -0.0338   -2.1884 O   0  0  0  0  0  0  0  0  0  0  0  0
   -0.7601   -0.1073   -0.7064 C   0  0  0  0  0  0  0  0  0  0  0  0
   -1.2249   -0.1691    0.6165 C   0  0  0  0  0  0  0  0  0  0  0  0
   -2.5988   -0.1856    0.8834 C   0  0  0  0  0  0  0  0  0  0  0  0
   -3.5121   -0.1401   -0.1788 C   0  0  0  0  0  0  0  0  0  0  0  0
   -3.0598   -0.0784   -1.5032 C   0  0  0  0  0  0  0  0  0  0  0  0
   -1.6851   -0.0622   -1.7614 C   0  0  0  0  0  0  0  0  0  0  0  0
   -4.9545   -0.1574    0.0992 N   0  0  0  0  0  0  0  0  0  0  0  0
   -5.3113   -0.2125    1.2845 O   0  0  0  0  0  0  0  0  0  0  0  0
   -5.7280   -0.1158   -0.8677 O   0  0  0  0  0  0  0  0  0  0  0  0
    3.2074   -0.2422    2.0388 H   0  0  0  0  0  0  0  0  0  0  0  0
    3.1244   -1.8006    1.2308 H   0  0  0  0  0  0  0  0  0  0  0  0
    4.5813   -0.7974    1.0525 H   0  0  0  0  0  0  0  0  0  0  0  0
    3.1465   -0.7030   -0.9892 H   0  0  0  0  0  0  0  0  0  0  0  0
    4.4367    1.3705   -0.3414 H   0  0  0  0  0  0  0  0  0  0  0  0
    2.9047    1.7955   -1.1296 H   0  0  0  0  0  0  0  0  0  0  0  0
    3.0424    1.9240    0.6166 H   0  0  0  0  0  0  0  0  0  0  0  0
   -0.5282   -0.2048    1.4518 H   0  0  0  0  0  0  0  0  0  0  0  0
   -2.9362   -0.2337    1.9174 H   0  0  0  0  0  0  0  0  0  0  0  0
   -3.7559   -0.0425   -2.3393 H   0  0  0  0  0  0  0  0  0  0  0  0
   -1.3364   -0.0141   -2.7928 H   0  0  0  0  0  0  0  0  0  0  0  0
  1  2  1  0
  2  3  1  0
  2  4  1  0
  4  5  1  0
  5  6  2  0
  5  7  1  0
  7  8  2  0
  8  9  1  0
  9 10  2  0
 10 11  1  0
 11 12  2  0
 10 13  1  0
 13 14  1  0
 13 15  2  0
 12  7  1  0
  1 16  1  0
  1 17  1  0
  1 18  1  0
  2 19  1  0
  3 20  1  0
  3 21  1  0
  3 22  1  0
  8 23  1  0
  9 24  1  0
 11 25  1  0
 12 26  1  0
M  CHG  2  13   1  14  -1
M  END
