
     RDKit          3D

  0  0  0  0  0  0  0  0  0  0999 V3000
M  V30 BEGIN CTAB
M  V30 COUNTS 114 121 0 0 0
M  V30 BEGIN ATOM
M  V30 1 C 2.387262 -2.762545 2.313246 0
M  V30 2 O 1.106125 -2.320896 2.321262 0
M  V30 3 C 0.565637 -3.313879 3.162717 0
M  V30 4 C -0.714689 -2.471835 3.364378 0
M  V30 5 O -0.871158 -2.254836 1.990794 0
M  V30 6 C -2.160083 -2.599452 1.796733 0
M  V30 7 Eu 0.278821 -1.313195 0.761298 0 VAL=7
M  V30 8 N 0.695587 -0.049432 2.151115 0
M  V30 9 C 0.701914 0.928874 2.796450 0
M  V30 10 S 0.519825 1.549800 4.260103 0
M  V30 11 N 1.283682 0.090633 -0.208720 0
M  V30 12 C 2.664833 0.301459 -0.732902 0
M  V30 13 C 2.747458 0.309699 -2.091162 0
M  V30 14 C 4.033246 0.769350 -2.478787 0
M  V30 15 C 5.065205 1.159944 -1.653674 0
M  V30 16 C 4.801193 1.087680 -0.301719 0
M  V30 17 C 3.586023 0.650905 0.264774 0
M  V30 18 C 3.834609 0.590954 1.676460 0
M  V30 19 C 4.559532 1.836515 2.215295 0
M  V30 20 C 5.076883 -0.400278 1.840474 0
M  V30 21 C 2.038291 -0.037283 -3.281623 0
M  V30 22 C 2.397575 1.036553 -4.393919 0
M  V30 23 C 2.713817 -1.275802 -3.899280 0
M  V30 24 C 0.465266 1.337817 -0.493631 0
M  V30 25 C -0.819164 1.250498 -0.166337 0
M  V30 26 N -1.298206 0.008282 0.400215 0
M  V30 27 C -2.792759 -0.003437 0.585902 0
M  V30 28 C -3.448300 0.106038 1.803262 0
M  V30 29 C -4.799079 -0.044503 1.937632 0
M  V30 30 C -5.613087 -0.314256 0.871896 0
M  V30 31 C -4.947606 -0.417480 -0.359825 0
M  V30 32 C -3.574091 -0.271017 -0.553985 0
M  V30 33 C -3.346060 -0.208078 -1.978451 0
M  V30 34 C -4.244751 -1.278394 -2.635486 0
M  V30 35 C -4.097594 1.108877 -2.524978 0
M  V30 36 C -2.764250 0.503489 3.023864 0
M  V30 37 C -3.601848 0.077848 4.240965 0
M  V30 38 C -2.728646 2.039505 3.153340 0
M  V30 39 C -1.383651 2.595856 -0.465949 0
M  V30 40 C -2.612881 3.186171 -0.343813 0
M  V30 41 C -2.900175 4.476119 -0.677648 0
M  V30 42 C -1.908747 5.307661 -1.186370 0
M  V30 43 C -0.667522 4.745667 -1.319051 0
M  V30 44 C 0.473612 5.399740 -1.780017 0
M  V30 45 C 1.689843 4.762262 -1.855779 0
M  V30 46 C 1.747961 3.449956 -1.460791 0
M  V30 47 C 0.680723 2.731505 -0.999056 0
M  V30 48 C -0.461074 3.465037 -0.967529 0
M  V30 49 O -0.576747 -2.168548 -0.783425 0
M  V30 50 C -0.509827 -1.919874 -2.069663 0
M  V30 51 C -0.647950 -3.595826 -0.644470 0
M  V30 52 C 0.791384 -3.807147 -0.997106 0
M  V30 53 O 1.256253 -2.765293 -0.157313 0
M  V30 54 C 2.569522 -2.763188 -0.471995 0
M  V30 55 H 2.383767 -3.809669 1.915788 0
M  V30 56 H 2.729817 -2.804115 3.401870 0
M  V30 57 H 3.060011 -2.108800 1.833543 0
M  V30 58 H 1.172620 -3.314334 4.043621 0
M  V30 59 H 0.423983 -4.196763 2.568343 0
M  V30 60 H -0.471742 -1.565491 3.945806 0
M  V30 61 H -1.450488 -3.133596 3.682076 0
M  V30 62 H -2.193848 -3.741315 2.032206 0
M  V30 63 H -2.775113 -2.264475 2.685037 0
M  V30 64 H -2.621551 -2.488098 0.838167 0
M  V30 65 H 4.354157 0.850068 -3.531353 0
M  V30 66 H 6.000031 1.487203 -2.060258 0
M  V30 67 H 5.720715 1.432766 0.225977 0
M  V30 68 H 3.213742 0.113528 2.383033 0
M  V30 69 H 4.002055 2.730902 1.880611 0
M  V30 70 H 4.365140 1.771729 3.331191 0
M  V30 71 H 5.623575 1.819305 2.073804 0
M  V30 72 H 4.988091 -0.980365 2.748066 0
M  V30 73 H 5.000027 -1.066585 0.965503 0
M  V30 74 H 6.014272 0.182795 1.804194 0
M  V30 75 H 0.978265 -0.008981 -3.334395 0
M  V30 76 H 3.184864 0.631462 -5.017093 0
M  V30 77 H 1.509668 1.185537 -5.044476 0
M  V30 78 H 2.662594 1.937578 -3.820356 0
M  V30 79 H 3.091345 -0.973006 -4.900458 0
M  V30 80 H 3.651042 -1.431539 -3.310068 0
M  V30 81 H 2.097701 -2.163552 -3.943251 0
M  V30 82 H -5.318452 0.038840 2.897466 0
M  V30 83 H -6.668185 -0.436089 1.004438 0
M  V30 84 H -5.694918 -0.626406 -1.134203 0
M  V30 85 H -2.436465 -0.219626 -2.465917 0
M  V30 86 H -3.692210 -1.849246 -3.413729 0
M  V30 87 H -5.163975 -0.887139 -3.032965 0
M  V30 88 H -4.481389 -2.049716 -1.857243 0
M  V30 89 H -3.294021 1.854480 -2.625987 0
M  V30 90 H -4.883242 1.369933 -1.845463 0
M  V30 91 H -4.375092 0.811825 -3.552477 0
M  V30 92 H -1.793375 0.120564 3.188550 0
M  V30 93 H -4.385385 0.825632 4.458006 0
M  V30 94 H -2.920442 -0.038469 5.126350 0
M  V30 95 H -4.074885 -0.900642 4.118259 0
M  V30 96 H -2.095214 2.521015 2.422914 0
M  V30 97 H -3.794712 2.385055 3.178799 0
M  V30 98 H -2.353437 2.244192 4.173201 0
M  V30 99 H -3.395193 2.514687 0.068411 0
M  V30 100 H -3.894475 4.865911 -0.550657 0
M  V30 101 H -2.028295 6.336685 -1.478061 0
M  V30 102 H 0.358101 6.453105 -2.079677 0
M  V30 103 H 2.576633 5.258722 -2.207456 0
M  V30 104 H 2.676606 2.961349 -1.481787 0
M  V30 105 H -1.473384 -2.306034 -2.504230 0
M  V30 106 H -0.548433 -0.809139 -2.206907 0
M  V30 107 H 0.337736 -2.247469 -2.675718 0
M  V30 108 H -0.961710 -3.999549 0.263278 0
M  V30 109 H -1.255377 -3.887409 -1.474807 0
M  V30 110 H 1.152745 -3.589568 -1.958274 0
M  V30 111 H 1.165471 -4.792163 -0.579949 0
M  V30 112 H 2.544752 -2.674809 -1.629712 0
M  V30 113 H 3.288030 -2.055239 -0.211587 0
M  V30 114 H 2.925314 -3.793688 -0.327712 0
M  V30 END ATOM
M  V30 BEGIN BOND
M  V30 1 1 1 2
M  V30 2 1 2 3
M  V30 3 1 3 4
M  V30 4 1 4 5
M  V30 5 1 5 6
M  V30 6 9 5 7
M  V30 7 1 7 8
M  V30 8 2 8 9
M  V30 9 2 9 10
M  V30 10 1 7 11
M  V30 11 1 11 12
M  V30 12 2 12 13
M  V30 13 1 13 14
M  V30 14 2 14 15
M  V30 15 1 15 16
M  V30 16 2 16 17
M  V30 17 1 17 18
M  V30 18 1 18 19
M  V30 19 1 18 20
M  V30 20 1 13 21
M  V30 21 1 21 22
M  V30 22 1 21 23
M  V30 23 1 11 24
M  V30 24 2 24 25
M  V30 25 1 25 26
M  V30 26 1 26 27
M  V30 27 2 27 28
M  V30 28 1 28 29
M  V30 29 2 29 30
M  V30 30 1 30 31
M  V30 31 2 31 32
M  V30 32 1 32 33
M  V30 33 1 33 34
M  V30 34 1 33 35
M  V30 35 1 28 36
M  V30 36 1 36 37
M  V30 37 1 36 38
M  V30 38 1 25 39
M  V30 39 2 39 40
M  V30 40 1 40 41
M  V30 41 2 41 42
M  V30 42 1 42 43
M  V30 43 2 43 44
M  V30 44 1 44 45
M  V30 45 2 45 46
M  V30 46 1 46 47
M  V30 47 2 47 48
M  V30 48 9 49 7
M  V30 49 1 49 50
M  V30 50 1 49 51
M  V30 51 1 51 52
M  V30 52 1 52 53
M  V30 53 1 53 54
M  V30 54 9 2 7
M  V30 55 1 17 12
M  V30 56 1 47 24
M  V30 57 1 26 7
M  V30 58 1 32 27
M  V30 59 1 48 39
M  V30 60 9 53 7
M  V30 61 1 48 43
M  V30 62 1 1 55
M  V30 63 1 1 56
M  V30 64 1 1 57
M  V30 65 1 3 58
M  V30 66 1 3 59
M  V30 67 1 4 60
M  V30 68 1 4 61
M  V30 69 1 6 62
M  V30 70 1 6 63
M  V30 71 1 6 64
M  V30 72 1 14 65
M  V30 73 1 15 66
M  V30 74 1 16 67
M  V30 75 1 18 68
M  V30 76 1 19 69
M  V30 77 1 19 70
M  V30 78 1 19 71
M  V30 79 1 20 72
M  V30 80 1 20 73
M  V30 81 1 20 74
M  V30 82 1 21 75
M  V30 83 1 22 76
M  V30 84 1 22 77
M  V30 85 1 22 78
M  V30 86 1 23 79
M  V30 87 1 23 80
M  V30 88 1 23 81
M  V30 89 1 29 82
M  V30 90 1 30 83
M  V30 91 1 31 84
M  V30 92 1 33 85
M  V30 93 1 34 86
M  V30 94 1 34 87
M  V30 95 1 34 88
M  V30 96 1 35 89
M  V30 97 1 35 90
M  V30 98 1 35 91
M  V30 99 1 36 92
M  V30 100 1 37 93
M  V30 101 1 37 94
M  V30 102 1 37 95
M  V30 103 1 38 96
M  V30 104 1 38 97
M  V30 105 1 38 98
M  V30 106 1 40 99
M  V30 107 1 41 100
M  V30 108 1 42 101
M  V30 109 1 44 102
M  V30 110 1 45 103
M  V30 111 1 46 104
M  V30 112 1 50 105
M  V30 113 1 50 106
M  V30 114 1 50 107
M  V30 115 1 51 108
M  V30 116 1 51 109
M  V30 117 1 52 110
M  V30 118 1 52 111
M  V30 119 1 54 112
M  V30 120 1 54 113
M  V30 121 1 54 114
M  V30 END BOND
M  V30 END CTAB
M  END
