
     RDKit          3D

  0  0  0  0  0  0  0  0  0  0999 V3000
M  V30 BEGIN CTAB
M  V30 COUNTS 109 117 0 0 0
M  V30 BEGIN ATOM
M  V30 1 C 4.615951 2.227239 -0.423146 0
M  V30 2 C 3.312304 1.811792 -0.405777 0
M  V30 3 N 2.178275 1.430078 -0.379552 0
M  V30 4 Fe 0.152464 0.729166 -0.296131 0 CHG=2 VAL=6
M  V30 5 N 0.510576 1.424725 -2.270803 0
M  V30 6 C 0.706974 1.838916 -3.382438 0
M  V30 7 C 0.920734 2.338281 -4.655259 0
M  V30 8 N -1.449146 2.158651 -0.219608 0
M  V30 9 C -2.370128 1.434809 -0.659842 0
M  V30 10 C -2.959185 0.279012 -1.286137 0
M  V30 11 P -1.510313 -0.925116 -0.751393 0 RAD=2 VAL=4
M  V30 12 C -1.461688 -2.093952 -1.958641 0
M  V30 13 C -1.597397 -3.394450 -2.291673 0
M  V30 14 C -1.489758 -4.026725 -3.489802 0
M  V30 15 C -1.193665 -3.306076 -4.608987 0
M  V30 16 C -1.023814 -3.968168 -5.918671 0
M  V30 17 C -1.028818 -1.957854 -4.438193 0
M  V30 18 C -1.158714 -1.375529 -3.166950 0
M  V30 19 C -2.349422 -1.623846 0.853417 0
M  V30 20 C -2.412373 -0.327154 1.178013 0
M  V30 21 C -3.104459 -0.779121 2.498524 0
M  V30 22 C -3.358033 -2.169913 2.824030 0
M  V30 23 C -4.025378 -2.400298 4.196265 0
M  V30 24 C -2.920672 -3.138361 1.801108 0
M  V30 25 C -2.232651 -2.848208 0.431595 0
M  V30 26 C -0.854002 3.372246 0.423491 0
M  V30 27 C 0.035667 3.091930 1.597834 0
M  V30 28 N 0.083486 1.610239 1.682789 0
M  V30 29 C 0.285649 0.482003 2.279088 0
M  V30 30 C 0.262550 -1.023256 2.224666 0
M  V30 31 P 0.821424 -1.407906 0.666576 0 RAD=2 VAL=4
M  V30 32 C 0.968830 -2.705174 -0.356446 0
M  V30 33 C 1.360893 -2.275006 -1.602752 0
M  V30 34 C 1.671624 -3.149379 -2.669112 0
M  V30 35 C 1.538712 -4.498635 -2.338614 0
M  V30 36 C 1.760206 -5.559076 -3.341315 0
M  V30 37 C 1.151224 -4.963648 -1.112337 0
M  V30 38 C 0.856144 -4.047903 -0.086293 0
M  V30 39 C 2.645011 -1.547420 1.158006 0
M  V30 40 C 3.560154 -1.148979 0.210048 0
M  V30 41 C 4.923179 -1.098686 0.378911 0
M  V30 42 C 5.364869 -1.489128 1.609267 0
M  V30 43 C 6.777973 -1.511850 2.137929 0
M  V30 44 C 4.481811 -1.911893 2.621145 0
M  V30 45 C 3.132991 -1.925326 2.351075 0
M  V30 46 C -0.490134 3.632911 2.878014 0
M  V30 47 C 0.219274 4.486901 3.714000 0
M  V30 48 C -0.412077 4.866487 4.881603 0
M  V30 49 C -1.667499 4.472276 5.268065 0
M  V30 50 C -2.337696 3.644393 4.429619 0
M  V30 51 C -1.774683 3.210646 3.237238 0
M  V30 52 C -1.601140 4.580874 0.319855 0
M  V30 53 C -2.203539 4.589350 -0.970940 0
M  V30 54 C -3.021619 5.603550 -1.445452 0
M  V30 55 C -3.286527 6.681350 -0.632723 0
M  V30 56 C -2.736671 6.725729 0.619645 0
M  V30 57 C -1.943905 5.678378 0.989727 0
M  V30 58 H 5.062510 2.171944 0.585323 0
M  V30 59 H 4.633689 3.300678 -0.775861 0
M  V30 60 H 5.283822 1.636291 -1.114804 0
M  V30 61 H 1.696543 1.734650 -5.152991 0
M  V30 62 H -0.076897 2.265041 -5.201176 0
M  V30 63 H 1.189587 3.414516 -4.724427 0
M  V30 64 H -3.052262 1.934909 -0.241375 0
M  V30 65 H -3.862548 -0.087357 -0.915576 0
M  V30 66 H -2.921891 0.270712 -2.379188 0
M  V30 67 H -1.824690 -4.018964 -1.461004 0
M  V30 68 H -1.630458 -5.092656 -3.525736 0
M  V30 69 H -1.961760 -3.979644 -6.472200 0
M  V30 70 H -0.187971 -3.498829 -6.493171 0
M  V30 71 H -0.741851 -5.047546 -5.733143 0
M  V30 72 H -0.791097 -1.435304 -5.370786 0
M  V30 73 H -1.007917 -0.292751 -3.317203 0
M  V30 74 H -2.571664 0.608970 1.617506 0
M  V30 75 H -3.477026 -0.172493 3.376287 0
M  V30 76 H -4.865123 -1.705633 4.246671 0
M  V30 77 H -4.220171 -3.452414 4.312739 0
M  V30 78 H -3.247246 -2.060696 4.906027 0
M  V30 79 H -3.283475 -4.051186 2.415058 0
M  V30 80 H -2.078975 -3.861871 0.744247 0
M  V30 81 H -0.048519 3.536276 -0.423953 0
M  V30 82 H 1.037183 3.474653 1.454621 0
M  V30 83 H 0.898614 0.749418 3.006883 0
M  V30 84 H -0.654525 -1.481620 2.613203 0
M  V30 85 H 0.940947 -1.275705 3.137338 0
M  V30 86 H 1.486064 -1.266907 -2.023581 0
M  V30 87 H 1.987011 -2.911379 -3.675191 0
M  V30 88 H 1.734921 -5.063639 -4.355583 0
M  V30 89 H 0.849117 -6.253523 -3.375315 0
M  V30 90 H 2.643675 -6.176345 -3.207971 0
M  V30 91 H 1.057938 -6.020364 -0.879039 0
M  V30 92 H 0.540895 -4.315633 0.903082 0
M  V30 93 H 3.352746 -0.854714 -0.790153 0
M  V30 94 H 5.685206 -0.800436 -0.290376 0
M  V30 95 H 7.155491 -2.552413 2.257961 0
M  V30 96 H 6.871306 -1.021584 3.121928 0
M  V30 97 H 7.371196 -0.947111 1.396263 0
M  V30 98 H 4.756294 -2.239379 3.615067 0
M  V30 99 H 2.443993 -2.277844 3.105809 0
M  V30 100 H 1.222119 4.796808 3.403776 0
M  V30 101 H 0.118496 5.546446 5.567384 0
M  V30 102 H -2.106628 4.807497 6.198255 0
M  V30 103 H -3.336871 3.343925 4.761069 0
M  V30 104 H -2.443808 2.573437 2.693314 0
M  V30 105 H -2.129165 3.830682 -1.775521 0
M  V30 106 H -3.502345 5.664113 -2.411942 0
M  V30 107 H -3.908052 7.499863 -0.935090 0
M  V30 108 H -2.902300 7.537741 1.311589 0
M  V30 109 H -1.507971 5.713476 1.968403 0
M  V30 END ATOM
M  V30 BEGIN BOND
M  V30 1 1 1 2
M  V30 2 3 2 3
M  V30 3 9 3 4
M  V30 4 9 5 4
M  V30 5 3 5 6
M  V30 6 1 6 7
M  V30 7 9 8 4
M  V30 8 2 8 9
M  V30 9 1 9 10
M  V30 10 1 10 11
M  V30 11 1 11 12
M  V30 12 2 12 13
M  V30 13 1 13 14
M  V30 14 2 14 15
M  V30 15 1 15 16
M  V30 16 1 15 17
M  V30 17 2 17 18
M  V30 18 1 11 19
M  V30 19 2 19 20
M  V30 20 1 20 21
M  V30 21 2 21 22
M  V30 22 1 22 23
M  V30 23 1 22 24
M  V30 24 2 24 25
M  V30 25 1 8 26
M  V30 26 1 26 27
M  V30 27 1 27 28
M  V30 28 2 28 29
M  V30 29 1 29 30
M  V30 30 1 30 31
M  V30 31 1 31 32
M  V30 32 2 32 33
M  V30 33 1 33 34
M  V30 34 2 34 35
M  V30 35 1 35 36
M  V30 36 1 35 37
M  V30 37 2 37 38
M  V30 38 1 31 39
M  V30 39 2 39 40
M  V30 40 1 40 41
M  V30 41 2 41 42
M  V30 42 1 42 43
M  V30 43 1 42 44
M  V30 44 2 44 45
M  V30 45 1 27 46
M  V30 46 2 46 47
M  V30 47 1 47 48
M  V30 48 2 48 49
M  V30 49 1 49 50
M  V30 50 2 50 51
M  V30 51 1 26 52
M  V30 52 2 52 53
M  V30 53 1 53 54
M  V30 54 2 54 55
M  V30 55 1 55 56
M  V30 56 2 56 57
M  V30 57 1 11 4
M  V30 58 1 18 12
M  V30 59 1 25 19
M  V30 60 1 38 32
M  V30 61 1 45 39
M  V30 62 1 51 46
M  V30 63 1 57 52
M  V30 64 9 28 4
M  V30 65 1 31 4
M  V30 66 1 1 58
M  V30 67 1 1 59
M  V30 68 1 1 60
M  V30 69 1 7 61
M  V30 70 1 7 62
M  V30 71 1 7 63
M  V30 72 1 9 64
M  V30 73 1 10 65
M  V30 74 1 10 66
M  V30 75 1 13 67
M  V30 76 1 14 68
M  V30 77 1 16 69
M  V30 78 1 16 70
M  V30 79 1 16 71
M  V30 80 1 17 72
M  V30 81 1 18 73
M  V30 82 1 20 74
M  V30 83 1 21 75
M  V30 84 1 23 76
M  V30 85 1 23 77
M  V30 86 1 23 78
M  V30 87 1 24 79
M  V30 88 1 25 80
M  V30 89 1 26 81
M  V30 90 1 27 82
M  V30 91 1 29 83
M  V30 92 1 30 84
M  V30 93 1 30 85
M  V30 94 1 33 86
M  V30 95 1 34 87
M  V30 96 1 36 88
M  V30 97 1 36 89
M  V30 98 1 36 90
M  V30 99 1 37 91
M  V30 100 1 38 92
M  V30 101 1 40 93
M  V30 102 1 41 94
M  V30 103 1 43 95
M  V30 104 1 43 96
M  V30 105 1 43 97
M  V30 106 1 44 98
M  V30 107 1 45 99
M  V30 108 1 47 100
M  V30 109 1 48 101
M  V30 110 1 49 102
M  V30 111 1 50 103
M  V30 112 1 51 104
M  V30 113 1 53 105
M  V30 114 1 54 106
M  V30 115 1 55 107
M  V30 116 1 56 108
M  V30 117 1 57 109
M  V30 END BOND
M  V30 END CTAB
M  END
