
     RDKit          3D

 29 30  0  0  0  0  0  0  0  0999 V2000
   -0.5114    4.3362   -0.4483 Cl  0  0  0  0  0  0  0  0  0  0  0  0
    0.2026    2.7734   -0.4011 Au  0  0  0  0  0  3  0  0  0  0  0  0
    0.0794    0.8701   -0.2181 C   0  0  0  0  0  0  0  0  0  0  0  0
    1.2206    0.0648   -0.2916 N   0  0  0  0  0  0  0  0  0  0  0  0
    1.6169   -1.0242    0.5823 C   0  0  0  0  0  0  0  0  0  0  0  0
    3.0786   -0.7158    0.7738 C   0  0  0  0  0  0  0  0  0  0  0  0
    3.5206   -0.3098   -0.6143 C   0  0  0  0  0  0  0  0  0  0  0  0
    2.2582    0.1570   -1.2744 C   0  0  0  0  0  0  0  0  0  0  0  0
   -1.2410    0.4161   -0.0112 N   0  0  0  0  0  0  0  0  0  0  0  0
   -2.0343    0.7386    1.1471 C   0  0  0  0  0  0  0  0  0  0  0  0
   -3.1449   -0.2572    1.0734 C   0  0  0  0  0  0  0  0  0  0  0  0
   -3.3390   -0.6084   -0.3893 C   0  0  0  0  0  0  0  0  0  0  0  0
   -1.9416   -0.4310   -0.9543 C   0  0  0  0  0  0  0  0  0  0  0  0
    1.4969   -2.0085    0.0946 H   0  0  0  0  0  0  0  0  0  0  0  0
    1.0239   -0.9519    1.5048 H   0  0  0  0  0  0  0  0  0  0  0  0
    3.6391   -1.5745    1.1851 H   0  0  0  0  0  0  0  0  0  0  0  0
    3.2001    0.1194    1.4657 H   0  0  0  0  0  0  0  0  0  0  0  0
    3.9660   -1.1538   -1.1878 H   0  0  0  0  0  0  0  0  0  0  0  0
    4.2854    0.4881   -0.4879 H   0  0  0  0  0  0  0  0  0  0  0  0
    2.3965    1.2153   -1.5428 H   0  0  0  0  0  0  0  0  0  0  0  0
    2.0142   -0.4882   -2.1248 H   0  0  0  0  0  0  0  0  0  0  0  0
   -1.4491    0.6176    2.1056 H   0  0  0  0  0  0  0  0  0  0  0  0
   -2.3562    1.8038    1.1644 H   0  0  0  0  0  0  0  0  0  0  0  0
   -4.0675    0.0615    1.5750 H   0  0  0  0  0  0  0  0  0  0  0  0
   -2.7397   -1.2032    1.5401 H   0  0  0  0  0  0  0  0  0  0  0  0
   -4.0436    0.0560   -0.8939 H   0  0  0  0  0  0  0  0  0  0  0  0
   -3.6895   -1.6655   -0.5064 H   0  0  0  0  0  0  0  0  0  0  0  0
   -1.9628    0.1149   -1.9260 H   0  0  0  0  0  0  0  0  0  0  0  0
   -1.4784   -1.4408   -1.0607 H   0  0  0  0  0  0  0  0  0  0  0  0
  1  2  1  0
  2  3  2  3
  3  4  1  0
  4  5  1  0
  5  6  1  0
  6  7  1  0
  7  8  1  0
  3  9  1  0
  9 10  1  0
 10 11  1  0
 11 12  1  0
 12 13  1  0
  8  4  1  0
 13  9  1  0
  5 14  1  0
  5 15  1  0
  6 16  1  0
  6 17  1  0
  7 18  1  0
  7 19  1  0
  8 20  1  0
  8 21  1  0
 10 22  1  0
 10 23  1  0
 11 24  1  0
 11 25  1  0
 12 26  1  0
 12 27  1  0
 13 28  1  0
 13 29  1  0
M  END
