
  --CCDC--092525    3D                              

 32 34  0  0  0  0  0  0  0  0999 V2000
    0.0144   -0.1418    0.0108 C      0
    1.4487    0.0040   -0.5106 C      0
    2.2443   -1.2195   -0.1625 C      0
    2.7678   -2.0685   -1.0049 C      0
    2.1193    1.2607    0.0757 C      0
    1.8942    1.1944    1.5304 N      0
    2.6323    0.4180    2.1450 N      0
    3.2368   -0.3034    2.9388 N      0
    1.5501    2.5408   -0.5017 C      0
    0.6982    3.3974   -1.3031 C      0
    0.5162    5.0204   -1.5593 C      0
    1.1375    6.2473   -1.0817 C      0
    1.4157    7.7266   -0.9148 C      0
    2.0873    4.5790   -0.1524 Fe     0
    1.9045    5.5226    1.8251 C      0
    1.8039    6.0099    2.8481 O      0
    4.1075    5.2811   -0.6667 C      0
    5.1542    5.6449   -0.9332 O      0
    3.5833    3.7799    1.2505 C      0
    4.3544    3.3636    1.9808 O      0
   -0.5707    0.7480   -0.2128 H      0
    0.0072   -0.2884    1.0891 H      0
   -0.4822   -0.9951   -0.4481 H      0
    1.4114    0.0985   -1.6072 H      0
    2.4012   -1.4178    0.8927 H      0
    2.6420   -1.9208   -2.0724 H      0
    3.3297   -2.9210   -0.6378 H      0
    3.1991    1.2173   -0.1303 H      0
    0.7484    8.3146   -1.5356 H      0
    1.2720    8.0345    0.1166 H      0
    2.4367    7.9663   -1.1957 H      0
    3.7196    0.2330    3.6567 H      0
  1  2  1
  2  3  1
  3  4  2
  2  5  1
  5  6  1
  6  7  2
  7  8  2
  5  9  1
  9 10  2
 10 11  1
 11 12  2
 12 13  1
 12 14  1
  9 14  1
 10 14  1
 11 14  1
 14 15  1
 15 16  3
 14 17  1
 17 18  3
 14 19  1
 19 20  3
  1 21  1
  1 22  1
  1 23  1
  2 24  1
  3 25  1
  4 26  1
  4 27  1
  5 28  1
 13 29  1
 13 30  1
 13 31  1
  8 32  1
M  END
$$$$
