
     RDKit          3D

  0  0  0  0  0  0  0  0  0  0999 V3000
M  V30 BEGIN CTAB
M  V30 COUNTS 53 60 0 0 0
M  V30 BEGIN ATOM
M  V30 1 C 0.801007 -3.132118 -3.869403 0
M  V30 2 C 0.604155 -2.241342 -2.817765 0
M  V30 3 N 0.453326 -1.463607 -1.896071 0
M  V30 4 Fe 0.229588 -0.138916 -0.306559 0 CHG=3 VAL=6
M  V30 5 N 2.131031 0.465165 -0.899756 0
M  V30 6 C 3.225118 0.802271 -1.259644 0
M  V30 7 C 4.497988 1.176633 -1.695646 0
M  V30 8 C 0.683848 -0.049281 1.771936 0 RAD=2 VAL=3
M  V30 9 N 0.578825 1.063530 2.426694 0
M  V30 10 C -0.434410 2.098977 2.450082 0
M  V30 11 N -0.388464 2.488332 1.066496 0
M  V30 12 C -0.099030 3.838144 0.622621 0
M  V30 13 C -0.257283 3.930545 -0.688730 0
M  V30 14 N -0.649905 2.667158 -1.153536 0
M  V30 15 C -1.089188 1.930309 -2.358122 0
M  V30 16 N -2.182019 1.155442 -1.781194 0
M  V30 17 C -3.602681 1.094723 -1.779050 0
M  V30 18 C -3.932914 0.286643 -0.780479 0
M  V30 19 N -2.769173 -0.208028 -0.100591 0
M  V30 20 C -2.850202 -0.904861 1.174305 0
M  V30 21 N -1.830792 -1.917581 1.042041 0
M  V30 22 C -1.806703 -3.360220 0.908325 0
M  V30 23 C -0.553992 -3.747429 1.220865 0
M  V30 24 N 0.240364 -2.585072 1.555992 0
M  V30 25 C 1.516074 -2.409776 2.222391 0
M  V30 26 N 1.521989 -0.947703 2.392427 0
M  V30 27 C 2.366446 -0.110105 3.214472 0
M  V30 28 C 1.788833 1.105561 3.230241 0
M  V30 29 C -0.583932 -1.550428 1.038620 0 RAD=2 VAL=3
M  V30 30 C -1.773276 0.113121 -0.914273 0 RAD=2 VAL=3
M  V30 31 C -0.582304 1.800408 -0.011134 0 RAD=2 VAL=3
M  V30 32 H -0.150900 -3.189331 -4.457369 0
M  V30 33 H 1.086568 -4.111492 -3.414470 0
M  V30 34 H 1.635757 -2.868442 -4.564996 0
M  V30 35 H 4.909344 1.952412 -1.024710 0
M  V30 36 H 4.499909 1.533257 -2.771701 0
M  V30 37 H 5.239613 0.322251 -1.664183 0
M  V30 38 H -0.260107 2.901069 3.177634 0
M  V30 39 H -1.409751 1.593364 2.601772 0
M  V30 40 H 0.211025 4.778348 1.095359 0
M  V30 41 H -0.148966 4.736186 -1.412853 0
M  V30 42 H -1.452059 2.636049 -3.114272 0
M  V30 43 H -0.298645 1.286374 -2.754317 0
M  V30 44 H -4.170503 1.654234 -2.511281 0
M  V30 45 H -4.987523 0.113411 -0.614590 0
M  V30 46 H -3.799064 -1.484361 1.309058 0
M  V30 47 H -2.771205 -0.266849 2.050417 0
M  V30 48 H -2.668671 -3.981231 0.608980 0
M  V30 49 H -0.207669 -4.796183 1.216683 0
M  V30 50 H 1.601518 -2.927811 3.176374 0
M  V30 51 H 2.312203 -2.645572 1.500994 0
M  V30 52 H 3.296729 -0.397789 3.729341 0
M  V30 53 H 2.280073 1.911613 3.812579 0
M  V30 END ATOM
M  V30 BEGIN BOND
M  V30 1 1 1 2
M  V30 2 3 2 3
M  V30 3 9 3 4
M  V30 4 9 5 4
M  V30 5 3 5 6
M  V30 6 1 6 7
M  V30 7 1 4 8
M  V30 8 1 8 9
M  V30 9 1 9 10
M  V30 10 1 10 11
M  V30 11 1 11 12
M  V30 12 2 12 13
M  V30 13 1 13 14
M  V30 14 1 14 15
M  V30 15 1 15 16
M  V30 16 1 16 17
M  V30 17 2 17 18
M  V30 18 1 18 19
M  V30 19 1 19 20
M  V30 20 1 20 21
M  V30 21 1 21 22
M  V30 22 2 22 23
M  V30 23 1 23 24
M  V30 24 1 24 25
M  V30 25 1 25 26
M  V30 26 1 26 27
M  V30 27 2 27 28
M  V30 28 1 24 29
M  V30 29 1 19 30
M  V30 30 1 14 31
M  V30 31 1 29 4
M  V30 32 1 30 4
M  V30 33 1 31 4
M  V30 34 1 26 8
M  V30 35 1 28 9
M  V30 36 1 31 11
M  V30 37 1 30 16
M  V30 38 1 29 21
M  V30 39 1 1 32
M  V30 40 1 1 33
M  V30 41 1 1 34
M  V30 42 1 7 35
M  V30 43 1 7 36
M  V30 44 1 7 37
M  V30 45 1 10 38
M  V30 46 1 10 39
M  V30 47 1 12 40
M  V30 48 1 13 41
M  V30 49 1 15 42
M  V30 50 1 15 43
M  V30 51 1 17 44
M  V30 52 1 18 45
M  V30 53 1 20 46
M  V30 54 1 20 47
M  V30 55 1 22 48
M  V30 56 1 23 49
M  V30 57 1 25 50
M  V30 58 1 25 51
M  V30 59 1 27 52
M  V30 60 1 28 53
M  V30 END BOND
M  V30 END CTAB
M  END
