
  --CCDC--092525    3D                              

 76 82  0  0  0  0  0  0  0  0999 V2000
   -1.9369    1.6043   -6.8541 H      0
   -1.9641    0.9320   -6.0029 C      0
   -2.6544   -0.2553   -6.0774 C      0
   -3.1659   -0.5264   -6.9950 H      0
   -2.6989   -1.1057   -4.9856 C      0
   -3.2383   -2.0431   -5.0740 H      0
   -2.0698   -0.7869   -3.7757 C      0
   -2.2238   -1.9802   -2.4073 P      0
   -3.9898   -1.6028   -2.6602 C      0
   -4.9023   -2.6509   -2.8153 C      0
   -4.5557   -3.6786   -2.8133 H      0
   -6.2562   -2.4058   -2.9727 C      0
   -6.9441   -3.2361   -3.0939 H      0
   -6.7346   -1.1152   -2.9743 C      0
   -7.7962   -0.9269   -3.0960 H      0
   -5.8583   -0.0649   -2.8210 C      0
   -6.2322    0.9537   -2.8229 H      0
   -4.5021   -0.2996   -2.6665 C      0
   -3.8380    0.5506   -2.5613 H      0
   -0.8071   -2.6754   -3.2945 C      0
   -0.8000   -3.5400   -4.3896 C      0
   -1.7247   -3.9844   -4.7429 H      0
    0.3973   -3.8092   -5.0348 C      0
    0.4089   -4.4860   -5.8828 H      0
    1.5720   -3.2140   -4.6209 C      0
    2.4944   -3.4162   -5.1552 H      0
    1.5848   -2.3645   -3.5261 C      0
    2.5103   -1.8997   -3.2027 H      0
    0.3989   -2.1315   -2.8325 C      0
    0.1341   -1.2998   -1.5896 C      0
    0.7766   -0.2683   -1.1324 N      0
   -0.2508    0.3223   -0.3768 C      0
   -0.7182    1.6023   -0.6697 C      0
   -0.0518    2.3632   -1.0620 H      0
   -2.1026    1.8337   -0.5879 C      0
   -2.4703    2.8084   -0.8910 H      0
   -3.0431    0.8785   -0.1853 C      0
   -4.1068    1.0791   -0.2597 H      0
   -2.5829   -0.2910    0.3787 C      0
   -3.2027   -0.9507    0.9498 H      0
   -1.2760   -0.0923    0.4263 C      0
   -1.0613   -0.7521    1.1757 H      0
   -1.2287   -1.7147   -0.3066 Co     0
   -2.9778   -3.1819    0.2665 P      0
   -2.8595   -4.7545   -0.6318 C      0
   -1.8757   -4.9466   -1.0448 H      0
   -3.5642   -4.7685   -1.4599 H      0
   -3.1181   -5.5830    0.0242 H      0
   -4.7288   -2.9149    0.6422 C      0
   -5.3152   -2.8499   -0.2718 H      0
   -4.8673   -1.9910    1.1998 H      0
   -5.1237   -3.7336    1.2401 H      0
   -2.6575   -3.1229    2.0534 C      0
   -3.4261   -3.6802    2.5848 H      0
   -2.6776   -2.1028    2.4287 H      0
   -1.7025   -3.5509    2.3307 H      0
    0.2384   -3.4667    0.2137 P      0
    0.5242   -2.3013    1.5729 C      0
    1.3406   -2.6678    2.1917 H      0
   -0.3265   -2.1759    2.2314 H      0
    0.8247   -1.3270    1.1994 H      0
    1.8576   -3.5353   -0.5949 C      0
    1.7921   -4.0642   -1.5435 H      0
    2.2609   -2.5437   -0.7842 H      0
    2.5711   -4.0636    0.0341 H      0
   -0.2322   -5.0629    0.9367 C      0
   -0.1021   -5.8531    0.2002 H      0
   -1.2638   -5.1062    1.2654 H      0
    0.4046   -5.2981    1.7869 H      0
   -1.3368    0.4015   -3.7506 C      0
   -0.7625    0.6661   -2.8801 H      0
   -1.3004    1.2544   -4.8416 C      0
   -0.7385    2.1806   -4.7823 H      0
   -2.6562   -3.2936   -2.5864 H      0
   -3.5866   -2.2265   -0.5343 H      0
   -0.5366   -3.5896   -0.9407 H      0
  1  2  1
  2  3  4
  3  4  1
  3  5  4
  5  6  1
  5  7  4
  7  8  1
  8  9  1
  9 10  4
 10 11  1
 10 12  4
 12 13  1
 12 14  4
 14 15  1
 14 16  4
 16 17  1
 16 18  4
  9 18  4
 18 19  1
  8 20  1
 20 21  4
 21 22  1
 21 23  4
 23 24  1
 23 25  4
 25 26  1
 25 27  4
 27 28  1
 27 29  4
 20 29  4
 29 30  1
 30 31  2
 31 32  1
 32 33  4
 33 34  1
 33 35  4
 35 36  1
 35 37  4
 37 38  1
 37 39  4
 39 40  1
 39 41  4
 32 41  4
 41 42  1
 42 43  1
 30 43  1
 41 43  1
  8 43  1
 43 44  1
 44 45  1
 45 46  1
 45 47  1
 45 48  1
 44 49  1
 49 50  1
 49 51  1
 49 52  1
 44 53  1
 53 54  1
 53 55  1
 53 56  1
 43 57  1
 57 58  1
 58 59  1
 58 60  1
 58 61  1
 57 62  1
 62 63  1
 62 64  1
 62 65  1
 57 66  1
 66 67  1
 66 68  1
 66 69  1
  7 70  4
 70 71  1
 70 72  4
  2 72  4
 72 73  1
  8 74  1
 44 75  1
 57 76  1
M  END
$$$$
