
  --CCDC--092525    3D                              

 73 77  0  0  0  0  0  0  0  0999 V2000
    0.3245    0.2160    0.3871 Cl     0
    1.2038    2.4146    0.0066 Ir     0
    1.1811    2.5980   -2.0993 N      0
    0.2795    1.8867   -2.8012 C      0
   -1.1188    2.0856   -2.6472 C      0
   -1.6099    3.2958   -1.9156 C      0
   -1.1384    3.2072   -0.1786 P      0
   -1.3091    4.8893    0.4708 C      0
   -2.5636    5.6131   -0.0253 C      0
   -1.2516    4.9281    2.0000 C      0
   -2.3422    2.0995    0.6243 C      0
   -2.7443    0.8956   -0.2317 C      0
   -3.6892    2.7650    0.9081 C      0
   -1.9923    1.2104   -3.2396 C      0
   -1.5421    0.1615   -4.0243 C      0
   -0.2174    0.0419   -4.3204 C      0
    0.7086    0.9672   -3.7841 C      0
    2.0149    1.0934   -4.2258 C      0
    2.7451    2.2160   -3.8594 C      0
    3.9237    2.5872   -4.5480 C      0
    4.5263    3.7773   -4.2837 C      0
    4.0096    4.6203   -3.3175 C      0
    2.9245    4.2718   -2.5558 C      0
    2.5510    5.2066   -1.4500 C      0
    2.7894    4.3044    0.0897 P      0
    4.5239    3.7435    0.1176 C      0
    4.8974    2.5355   -0.7499 C      0
    4.9811    3.3997    1.5336 C      0
    2.7080    5.4723    1.4792 C      0
    2.4131    4.8185    2.8329 C      0
    1.7473    6.6361    1.2404 C      0
    2.2576    3.0268   -2.7980 C      0
    1.0552    2.7903    1.5957 H      0
    2.5599    1.5021   -0.0691 H      0
   -1.1430    4.1806   -2.3657 H      0
   -2.6975    3.4014   -2.0128 H      0
   -0.4569    5.4492    0.0613 H      0
   -2.7051    5.4489   -1.0915 H      0
   -2.4675    6.6846    0.1372 H      0
   -3.4607    5.2864    0.4910 H      0
   -2.2088    4.6927    2.4536 H      0
   -0.9558    5.9161    2.3467 H      0
   -0.5319    4.2074    2.3712 H      0
   -1.9149    1.7522    1.5778 H      0
   -3.1645    0.1079    0.3901 H      0
   -1.9211    0.4782   -0.7996 H      0
   -3.5079    1.1915   -0.9476 H      0
   -4.0933    3.2090    0.0006 H      0
   -3.6133    3.5460    1.6565 H      0
   -4.4064    2.0302    1.2679 H      0
   -3.0587    1.3409   -3.0886 H      0
   -2.2522   -0.5500   -4.4326 H      0
    0.1206   -0.7373   -4.9955 H      0
    2.4226    0.3834   -4.9376 H      0
    4.3295    1.9351   -5.3143 H      0
    5.4124    4.0692   -4.8377 H      0
    4.4934    5.5748   -3.1387 H      0
    3.2007    6.0902   -1.4737 H      0
    1.5087    5.5339   -1.5492 H      0
    5.1377    4.5941   -0.2169 H      0
    4.5800    2.6325   -1.7819 H      0
    5.9787    2.4157   -0.7578 H      0
    4.4841    1.6146   -0.3504 H      0
    4.3472    2.6309    1.9706 H      0
    4.9459    4.2788    2.1730 H      0
    6.0049    3.0318    1.5272 H      0
    3.7061    5.9322    1.5464 H      0
    1.4699    4.2846    2.8124 H      0
    2.3532    5.5749    3.6127 H      0
    3.1786    4.1070    3.1258 H      0
    1.8639    7.0358    0.2352 H      0
    1.9465    7.4397    1.9464 H      0
    0.7171    6.3369    1.3748 H      0
  1  2  1
  2  3  1
  3  4  4
  4  5  4
  5  6  1
  6  7  1
  2  7  1
  7  8  1
  8  9  1
  8 10  1
  7 11  1
 11 12  1
 11 13  1
  5 14  4
 14 15  4
 15 16  4
 16 17  4
  4 17  4
 17 18  4
 18 19  4
 19 20  4
 20 21  4
 21 22  4
 22 23  4
 23 24  1
 24 25  1
  2 25  1
 25 26  1
 26 27  1
 26 28  1
 25 29  1
 29 30  1
 29 31  1
 23 32  4
  3 32  4
 19 32  4
  2 33  1
  2 34  1
  6 35  1
  6 36  1
  8 37  1
  9 38  1
  9 39  1
  9 40  1
 10 41  1
 10 42  1
 10 43  1
 11 44  1
 12 45  1
 12 46  1
 12 47  1
 13 48  1
 13 49  1
 13 50  1
 14 51  1
 15 52  1
 16 53  1
 18 54  1
 20 55  1
 21 56  1
 22 57  1
 24 58  1
 24 59  1
 26 60  1
 27 61  1
 27 62  1
 27 63  1
 28 64  1
 28 65  1
 28 66  1
 29 67  1
 30 68  1
 30 69  1
 30 70  1
 31 71  1
 31 72  1
 31 73  1
M  END
$$$$
