
     RDKit          3D

 26 26  0  0  0  0  0  0  0  0999 V2000
   -3.3543   -1.3388    1.1585 C   0  0  0  0  0  0  0  0  0  0  0  0
   -2.8332   -0.0897    0.4586 C   0  0  0  0  0  0  0  0  0  0  0  0
   -3.4829    0.0727   -0.9109 C   0  0  0  0  0  0  0  0  0  0  0  0
   -1.4111   -0.2548    0.3006 O   0  0  0  0  0  0  0  0  0  0  0  0
   -0.6872    0.8853    0.1876 C   0  0  0  0  0  0  0  0  0  0  0  0
   -1.1264    2.0235    0.2087 O   0  0  0  0  0  0  0  0  0  0  0  0
    0.7598    0.5703    0.0274 C   0  0  0  0  0  0  0  0  0  0  0  0
    1.2465   -0.7460    0.0055 C   0  0  0  0  0  0  0  0  0  0  0  0
    2.6160   -0.9912   -0.1478 C   0  0  0  0  0  0  0  0  0  0  0  0
    3.5028    0.0861   -0.2799 C   0  0  0  0  0  0  0  0  0  0  0  0
    3.0285    1.4040   -0.2596 C   0  0  0  0  0  0  0  0  0  0  0  0
    1.6584    1.6406   -0.1060 C   0  0  0  0  0  0  0  0  0  0  0  0
    4.9405   -0.1692   -0.4409 N   0  0  0  0  0  0  0  0  0  0  0  0
    5.3174   -1.3495   -0.4535 O   0  0  0  0  0  0  0  0  0  0  0  0
    5.6904    0.8105   -0.5545 O   0  0  0  0  0  0  0  0  0  0  0  0
   -3.1254   -2.2398    0.5785 H   0  0  0  0  0  0  0  0  0  0  0  0
   -4.4362   -1.2861    1.3141 H   0  0  0  0  0  0  0  0  0  0  0  0
   -2.8672   -1.4602    2.1322 H   0  0  0  0  0  0  0  0  0  0  0  0
   -3.0508    0.7796    1.0912 H   0  0  0  0  0  0  0  0  0  0  0  0
   -4.5711    0.1507   -0.8262 H   0  0  0  0  0  0  0  0  0  0  0  0
   -3.1119    0.9710   -1.4149 H   0  0  0  0  0  0  0  0  0  0  0  0
   -3.2404   -0.7745   -1.5620 H   0  0  0  0  0  0  0  0  0  0  0  0
    0.5705   -1.5928    0.1069 H   0  0  0  0  0  0  0  0  0  0  0  0
    2.9707   -2.0204   -0.1618 H   0  0  0  0  0  0  0  0  0  0  0  0
    3.7040    2.2517   -0.3610 H   0  0  0  0  0  0  0  0  0  0  0  0
    1.2926    2.6670   -0.0907 H   0  0  0  0  0  0  0  0  0  0  0  0
  1  2  1  0
  2  3  1  0
  2  4  1  0
  4  5  1  0
  5  6  2  0
  5  7  1  0
  7  8  2  0
  8  9  1  0
  9 10  2  0
 10 11  1  0
 11 12  2  0
 10 13  1  0
 13 14  1  0
 13 15  2  0
 12  7  1  0
  1 16  1  0
  1 17  1  0
  1 18  1  0
  2 19  1  0
  3 20  1  0
  3 21  1  0
  3 22  1  0
  8 23  1  0
  9 24  1  0
 11 25  1  0
 12 26  1  0
M  CHG  2  13   1  14  -1
M  END
