
  --CCDC--081225    3D                              

114121  0  0  0  0  0  0  0  0999 V2000
    0.6665    1.4036   -3.3420 C      0
    1.6297    0.7141   -2.5893 O      0
    2.7184    0.3484   -3.4047 C      0
    3.6002    1.5584   -3.5046 C      0
    4.1473    1.7601   -2.2231 O      0
    5.2921    0.9676   -2.0663 C      0
    2.3640    1.7484   -0.2543 Eu     0
    0.1270    2.9645   -1.0212 N      0
   -1.0189    3.4909   -1.4527 C      0
   -2.4904    4.1668   -2.0068 S      0
    3.9127    3.8643    0.1764 N      0
    4.7973    4.3178   -0.8426 C      0
    6.1759    4.0179   -0.8234 C      0
    6.9726    4.6042   -1.8103 C      0
    6.4325    5.4209   -2.7884 C      0
    5.0748    5.6793   -2.8030 C      0
    4.2331    5.1467   -1.8305 C      0
    2.7519    5.4950   -1.8663 C      0
    2.1287    5.1082   -3.2071 C      0
    2.5412    6.9908   -1.6284 C      0
    6.8169    3.0756    0.1863 C      0
    7.7851    2.1038   -0.4889 C      0
    7.5844    3.8161    1.2780 C      0
    3.7795    4.5829    1.3990 C      0
    2.7825    4.2228    2.2929 C      0
    1.8874    3.1584    1.9661 N      0
    0.7529    2.9873    2.8224 C      0
    0.7390    2.1013    3.9310 C      0
   -0.4332    2.0151    4.6783 C      0
   -1.5160    2.8353    4.4482 C      0
   -1.4407    3.7859    3.4554 C      0
   -0.3310    3.8796    2.6112 C      0
   -0.3665    4.9441    1.5162 C      0
   -1.7688    5.0952    0.9261 C      0
    0.0513    6.3388    1.9793 C      0
    1.8666    1.2510    4.5014 C      0
    1.6196   -0.2573    4.5189 C      0
    2.2434    1.7609    5.8915 C      0
    2.8229    5.1191    3.4576 C      0
    2.1575    5.2928    4.6508 C      0
    2.5127    6.3320    5.5027 C      0
    3.5147    7.2130    5.2047 C      0
    4.2377    7.0776    3.9965 C      0
    5.2947    7.9052    3.5519 C      0
    5.9020    7.6532    2.3529 C      0
    5.5149    6.6000    1.5312 C      0
    4.4909    5.7615    1.9129 C      0
    3.8639    6.0163    3.1493 C      0
    3.8574   -0.1246    0.8928 O      0
    5.1223    0.1642    1.4306 C      0
    3.1801   -1.1236    1.6238 C      0
    1.8437   -1.4265    0.9986 C      0
    1.0603   -0.2552    0.8921 O      0
   -0.2356   -0.5414    0.4329 C      0
   -0.2984    1.3989   -2.8396 H      0
    0.5397    0.9424   -4.3197 H      0
    0.9692    2.4382   -3.4936 H      0
    2.3682    0.0351   -4.3964 H      0
    3.2676   -0.4984   -2.9748 H      0
    4.4002    1.4026   -4.2399 H      0
    3.0269    2.4336   -3.8347 H      0
    5.1081   -0.0455   -2.4173 H      0
    5.5820    0.9145   -1.0226 H      0
    6.1294    1.3736   -2.6297 H      0
    8.0426    4.4240   -1.8209 H      0
    7.0737    5.8602   -3.5452 H      0
    4.6590    6.3172   -3.5766 H      0
    2.2315    4.9382   -1.0717 H      0
    2.0498    4.0266   -3.2993 H      0
    2.7330    5.4759   -4.0340 H      0
    1.1298    5.5306   -3.3038 H      0
    3.0214    7.5752   -2.4106 H      0
    1.4807    7.2380   -1.6252 H      0
    2.9627    7.2938   -0.6720 H      0
    6.0161    2.4929    0.6623 H      0
    7.6533    2.1042   -1.5680 H      0
    7.6248    1.0899   -0.1305 H      0
    8.8161    2.3744   -0.2742 H      0
    8.1031    3.1108    1.9232 H      0
    6.9146    4.4017    1.8995 H      0
    8.3245    4.4843    0.8446 H      0
   -0.4851    1.2967    5.4891 H      0
   -2.4093    2.7501    5.0586 H      0
   -2.2737    4.4717    3.3564 H      0
    0.3207    4.6487    0.7130 H      0
   -2.2022    4.1233    0.7002 H      0
   -1.7376    5.6746    0.0060 H      0
   -2.4288    5.6097    1.6204 H      0
   -0.3694    7.0926    1.3175 H      0
    1.1283    6.4590    1.9505 H      0
   -0.2989    6.5430    2.9885 H      0
    2.7441    1.4213    3.8586 H      0
    1.1644   -0.5823    3.5856 H      0
    0.9642   -0.5292    5.3430 H      0
    2.5566   -0.7977    4.6370 H      0
    1.4139    1.6468    6.5859 H      0
    2.5050    2.8169    5.8579 H      0
    3.0996    1.2143    6.2852 H      0
    1.3536    4.6185    4.9262 H      0
    1.9734    6.4500    6.4369 H      0
    3.7530    8.0168    5.8940 H      0
    5.6232    8.7424    4.1592 H      0
    6.7138    8.2970    2.0304 H      0
    6.0244    6.4359    0.5873 H      0
    5.1545    1.1816    1.8181 H      0
    5.9065    0.0590    0.6857 H      0
    5.3489   -0.5171    2.2477 H      0
    3.7864   -2.0373    1.6546 H      0
    3.0632   -0.8048    2.6618 H      0
    1.3154   -2.1791    1.5963 H      0
    1.9890   -1.8633    0.0026 H      0
   -0.7073   -1.2950    1.0597 H      0
   -0.2030   -0.9188   -0.5875 H      0
   -0.8529    0.3546    0.4450 H      0
  1  2  1
  2  3  1
  3  4  1
  4  5  1
  5  6  1
  5  7  1
  2  7  1
  7  8  1
  8  9  4
  9 10  4
  7 11  1
 11 12  1
 12 13  4
 13 14  4
 14 15  4
 15 16  4
 16 17  4
 12 17  4
 17 18  1
 18 19  1
 18 20  1
 13 21  1
 21 22  1
 21 23  1
 11 24  1
 24 25  2
 25 26  1
  7 26  1
 26 27  1
 27 28  4
 28 29  4
 29 30  4
 30 31  4
 31 32  4
 27 32  4
 32 33  1
 33 34  1
 33 35  1
 28 36  1
 36 37  1
 36 38  1
 25 39  1
 39 40  4
 40 41  4
 41 42  4
 42 43  4
 43 44  4
 44 45  4
 45 46  4
 46 47  4
 24 47  1
 47 48  4
 39 48  4
 43 48  4
  7 49  1
 49 50  1
 49 51  1
 51 52  1
 52 53  1
  7 53  1
 53 54  1
  1 55  1
  1 56  1
  1 57  1
  3 58  1
  3 59  1
  4 60  1
  4 61  1
  6 62  1
  6 63  1
  6 64  1
 14 65  1
 15 66  1
 16 67  1
 18 68  1
 19 69  1
 19 70  1
 19 71  1
 20 72  1
 20 73  1
 20 74  1
 21 75  1
 22 76  1
 22 77  1
 22 78  1
 23 79  1
 23 80  1
 23 81  1
 29 82  1
 30 83  1
 31 84  1
 33 85  1
 34 86  1
 34 87  1
 34 88  1
 35 89  1
 35 90  1
 35 91  1
 36 92  1
 37 93  1
 37 94  1
 37 95  1
 38 96  1
 38 97  1
 38 98  1
 40 99  1
 41100  1
 42101  1
 44102  1
 45103  1
 46104  1
 50105  1
 50106  1
 50107  1
 51108  1
 51109  1
 52110  1
 52111  1
 54112  1
 54113  1
 54114  1
M  END
$$$$
