
  --CCDC--081225    3D                              

 80 95  0  0  0  0  0  0  0  0999 V2000
    0.0932   -2.2952   -2.8011 C      0
    1.4037   -2.7997   -3.0500 O      0
    2.2684   -3.0239   -2.0076 C      0
    3.5292   -3.5137   -2.2944 C      0
    4.4278   -3.7597   -1.2727 C      0
    4.0869   -3.5245    0.0520 C      0
    2.8216   -3.0152    0.3279 C      0
    1.9160   -2.7726   -0.6904 C      0
    5.0597   -3.8206    1.0556 N      0
    6.9319   -4.0769    0.3897 Cu     0
    7.3441   -6.2817   -0.4986 P      0
    5.9108   -6.9305   -1.3956 C      0
    4.6417   -6.8827   -0.8296 C      0
    3.5595   -7.4383   -1.4915 C      0
    3.7351   -8.0604   -2.7086 C      0
    4.9934   -8.1383   -3.2652 C      0
    6.0812   -7.5854   -2.6103 C      0
    7.7499   -7.4949    0.7815 C      0
    7.6818   -8.8536    0.4930 C      0
    8.0622   -9.7916    1.4381 C      0
    8.5302   -9.3859    2.6689 C      0
    8.6247   -8.0420    2.9577 C      0
    8.2437   -7.0975    2.0190 C      0
    8.7504   -6.1127   -1.6173 C      0
    9.6876   -6.0727   -0.8016 C      0
    8.5659   -5.3455   -1.8012 C      0
    8.0822   -3.8040   -2.2096 C      0
    8.0627   -5.0373   -2.3719 C      0
    9.4300   -4.0865   -0.7383 Fe     0
   10.5844   -2.1871   -0.0301 C      0
   10.0521   -2.8903    1.1610 C      0
    9.5690   -4.0332    1.2748 C      0
   10.0310   -2.7380    0.3532 C      0
   10.6511   -2.5743   -1.2072 C      0
    8.3250   -2.1049    0.4917 P      0
    7.9001   -1.1122    1.9633 C      0
    6.8446   -0.2087    1.8599 C      0
    6.4321    0.5401    2.9492 C      0
    7.0449    0.3841    4.1714 C      0
    8.0606   -0.5345    4.3082 C      0
    8.4771   -1.2879    3.2230 C      0
    7.9362   -0.9734   -0.8766 C      0
    6.6817   -1.0145   -1.4728 C      0
    6.3438   -0.1242   -2.4783 C      0
    7.2409    0.8402   -2.8805 C      0
    8.4705    0.9268   -2.2660 C      0
    8.8134    0.0379   -1.2607 C      0
    4.8110   -3.9882    2.4533 C      0
    3.7293   -3.8857    2.9970 O      0
    5.9845   -4.3570    3.3832 C      0
    6.4184   -5.5865    3.1608 F      0
    5.6285   -4.3122    4.6566 F      0
    7.0274   -3.5556    3.2602 F      0
   -0.4575   -2.1765   -3.7319 H      0
    0.1401   -1.3260   -2.3090 H      0
   -0.4661   -2.9739   -2.1605 H      0
    3.8136   -3.7070   -3.3235 H      0
    5.4135   -4.1461   -1.5099 H      0
    2.5278   -2.7847    1.3444 H      0
    0.9360   -2.3820   -0.4383 H      0
    4.4981   -6.4056    0.1343 H      0
    2.5701   -7.3854   -1.0493 H      0
    2.8845   -8.4914   -3.2262 H      0
    5.1326   -8.6362   -4.2191 H      0
    7.0709   -7.6615   -3.0484 H      0
    7.3276   -9.1810   -0.4789 H      0
    7.9939  -10.8497    1.2077 H      0
    8.8262  -10.1230    3.4080 H      0
    8.9993   -7.7222    3.9245 H      0
    8.3218   -6.0428    2.2571 H      0
    6.3326   -0.0838    0.9121 H      0
    5.6202    1.2513    2.8392 H      0
    6.7254    0.9763    5.0225 H      0
    8.5360   -0.6720    5.2737 H      0
    9.2613   -2.0205    3.3731 H      0
    5.9592   -1.7494   -1.1422 H      0
    5.3676   -0.1842   -2.9480 H      0
    6.9775    1.5331   -3.6728 H      0
    9.1726    1.6965   -2.5689 H      0
    9.7760    0.1342   -0.7703 H      0
  1  2  1
  2  3  1
  3  4  4
  4  5  4
  5  6  4
  6  7  4
  7  8  4
  3  8  4
  6  9  1
  9 10  1
 10 11  1
 11 12  1
 12 13  4
 13 14  4
 14 15  4
 15 16  4
 16 17  4
 12 17  4
 11 18  1
 18 19  4
 19 20  4
 20 21  4
 21 22  4
 22 23  4
 18 23  4
 11 24  1
 24 25  4
 25 26  4
 26 27  4
 27 28  4
 24 28  4
 28 29  1
 24 29  1
 25 29  1
 26 29  1
 27 29  1
 29 30  1
 30 31  4
 29 31  1
 31 32  4
 29 32  1
 32 33  4
 29 33  1
 33 34  4
 29 34  1
 30 34  4
 33 35  1
 10 35  1
 35 36  1
 36 37  4
 37 38  4
 38 39  4
 39 40  4
 40 41  4
 36 41  4
 35 42  1
 42 43  4
 43 44  4
 44 45  4
 45 46  4
 46 47  4
 42 47  4
  9 48  1
 48 49  2
 48 50  1
 50 51  1
 50 52  1
 50 53  1
  1 54  1
  1 55  1
  1 56  1
  4 57  1
  5 58  1
  7 59  1
  8 60  1
 13 61  1
 14 62  1
 15 63  1
 16 64  1
 17 65  1
 19 66  1
 20 67  1
 21 68  1
 22 69  1
 23 70  1
 37 71  1
 38 72  1
 39 73  1
 40 74  1
 41 75  1
 43 76  1
 44 77  1
 45 78  1
 46 79  1
 47 80  1
M  END
$$$$
