
     RDKit          3D

 23 24  0  0  0  0  0  0  0  0999 V2000
   -4.5779    0.9952   -0.9682 O   0  0  0  0  0  0  0  0  0  0  0  0
   -3.5992    0.3355   -0.7244 C   0  0  0  0  0  0  0  0  0  0  0  0
   -3.1230   -0.6051    0.3861 C   0  0  0  0  0  0  0  0  0  0  0  0
   -1.7331   -0.4204   -0.2363 C   0  0  0  0  0  0  0  0  0  0  0  0
   -2.4070    0.2552   -1.3823 N   0  0  0  0  0  0  0  0  0  0  0  0
   -0.6496    0.8109    0.5324 S   0  0  0  0  0  0  0  0  0  0  0  0
   -0.8033    2.0859   -0.1522 O   0  0  0  0  0  0  0  0  0  0  0  0
   -0.8136    0.7468    1.9745 O   0  0  0  0  0  0  0  0  0  0  0  0
    1.0192    0.2742    0.1933 C   0  0  0  0  0  0  0  0  0  0  0  0
    1.7257   -0.4489    1.1581 C   0  0  0  0  0  0  0  0  0  0  0  0
    3.0267   -0.8672    0.8799 C   0  0  0  0  0  0  0  0  0  0  0  0
    3.6140   -0.5568   -0.3482 C   0  0  0  0  0  0  0  0  0  0  0  0
    2.9071    0.1789   -1.3011 C   0  0  0  0  0  0  0  0  0  0  0  0
    1.6058    0.6018   -1.0325 C   0  0  0  0  0  0  0  0  0  0  0  0
   -3.2674   -0.2145    1.3954 H   0  0  0  0  0  0  0  0  0  0  0  0
   -3.5399   -1.6132    0.3109 H   0  0  0  0  0  0  0  0  0  0  0  0
   -1.2148   -1.3379   -0.5278 H   0  0  0  0  0  0  0  0  0  0  0  0
   -2.1188    1.1488   -1.7787 H   0  0  0  0  0  0  0  0  0  0  0  0
    1.2827   -0.6823    2.1238 H   0  0  0  0  0  0  0  0  0  0  0  0
    3.5890   -1.4277    1.6234 H   0  0  0  0  0  0  0  0  0  0  0  0
    4.6315   -0.8792   -0.5585 H   0  0  0  0  0  0  0  0  0  0  0  0
    3.3769    0.4303   -2.2494 H   0  0  0  0  0  0  0  0  0  0  0  0
    1.0690    1.1895   -1.7736 H   0  0  0  0  0  0  0  0  0  0  0  0
  1  2  2  0
  2  3  1  0
  3  4  1  0
  4  5  1  0
  4  6  1  0
  6  7  2  0
  6  8  2  0
  6  9  1  0
  9 10  2  0
 10 11  1  0
 11 12  2  0
 12 13  1  0
 13 14  2  0
  5  2  1  0
 14  9  1  0
  3 15  1  0
  3 16  1  0
  4 17  1  0
  5 18  1  0
 10 19  1  0
 11 20  1  0
 12 21  1  0
 13 22  1  0
 14 23  1  0
M  END
