
     RDKit          3D

  0  0  0  0  0  0  0  0  0  0999 V3000
M  V30 BEGIN CTAB
M  V30 COUNTS 79 83 0 0 0
M  V30 BEGIN ATOM
M  V30 1 Cl 0.155669 -3.012161 -1.656420 0
M  V30 2 Ru 0.546805 -0.797569 -0.566092 0 VAL=6
M  V30 3 C 1.675650 -1.114673 1.363761 0
M  V30 4 C 2.939846 -0.418915 1.162892 0
M  V30 5 C 3.495799 0.169761 2.308284 0
M  V30 6 C 4.682662 0.870312 2.352684 0
M  V30 7 C 5.393913 1.013075 1.183033 0
M  V30 8 C 4.868586 0.443484 0.041938 0
M  V30 9 C 3.676247 -0.249957 0.040707 0
M  V30 10 C 3.153711 -0.821735 -1.201110 0
M  V30 11 C 4.191692 -0.709626 -2.292516 0
M  V30 12 N 1.907142 -0.185650 -1.589149 0
M  V30 13 C 1.712278 -0.178807 -3.004183 0
M  V30 14 C 2.094508 1.200875 -1.261055 0
M  V30 15 Cl 0.526993 -3.112406 -0.762253 0
M  V30 16 C -1.333234 -0.152309 -0.788833 0 RAD=2 VAL=3
M  V30 17 N -2.224434 -0.916753 0.025526 0
M  V30 18 C -3.051372 0.005036 0.777890 0
M  V30 19 C -2.807616 1.218648 -0.117582 0
M  V30 20 N -1.358736 1.154148 -0.232365 0
M  V30 21 C -0.721186 2.368068 0.231362 0
M  V30 22 C -0.248304 2.730486 1.467459 0
M  V30 23 C -0.391349 1.732303 2.518796 0
M  V30 24 C 0.308746 3.974882 1.634852 0
M  V30 25 C 0.381738 4.832743 0.563422 0
M  V30 26 C 1.000857 6.153700 0.846406 0
M  V30 27 C -0.076862 4.520824 -0.696229 0
M  V30 28 C -0.638005 3.255637 -0.847684 0
M  V30 29 C -1.112449 3.000001 -2.251231 0
M  V30 30 C -2.591644 -2.261867 0.315097 0
M  V30 31 C -3.553580 -2.687238 -0.615937 0
M  V30 32 C -4.105617 -1.874988 -1.745853 0
M  V30 33 C -4.058739 -3.988639 -0.497468 0
M  V30 34 C -3.669630 -4.879328 0.477685 0
M  V30 35 C -4.228612 -6.251945 0.570621 0
M  V30 36 C -2.725139 -4.434266 1.376837 0
M  V30 37 C -2.215839 -3.161856 1.280374 0
M  V30 38 C -1.215296 -2.657829 2.248301 0
M  V30 39 H 1.534133 -1.589511 2.316909 0
M  V30 40 H 2.968934 0.087040 3.271164 0
M  V30 41 H 5.040548 1.292322 3.276946 0
M  V30 42 H 6.327977 1.552431 1.165863 0
M  V30 43 H 5.450077 0.574890 -0.853286 0
M  V30 44 H 2.955071 -1.904353 -1.063030 0
M  V30 45 H 4.399913 0.335651 -2.578606 0
M  V30 46 H 5.136687 -1.137793 -1.901805 0
M  V30 47 H 3.929445 -1.343046 -3.167696 0
M  V30 48 H 1.868760 -1.215507 -3.378931 0
M  V30 49 H 0.741932 0.238565 -3.266105 0
M  V30 50 H 2.492726 0.444211 -3.445860 0
M  V30 51 H 3.187228 1.480206 -1.417969 0
M  V30 52 H 1.579616 1.886560 -1.963811 0
M  V30 53 H 1.935053 1.406323 -0.193899 0
M  V30 54 H -2.718668 0.194659 1.798817 0
M  V30 55 H -4.142473 -0.211033 0.707731 0
M  V30 56 H -3.241194 1.001771 -1.122784 0
M  V30 57 H -3.220951 2.127262 0.307229 0
M  V30 58 H -1.230554 1.942055 3.225165 0
M  V30 59 H 0.519467 1.779379 3.174741 0
M  V30 60 H -0.413324 0.697097 2.139117 0
M  V30 61 H 0.660013 4.190242 2.636222 0
M  V30 62 H 0.360830 6.645003 1.611554 0
M  V30 63 H 0.990007 6.751779 -0.077140 0
M  V30 64 H 2.020801 5.950284 1.235501 0
M  V30 65 H 0.018126 5.244946 -1.471751 0
M  V30 66 H -2.060834 3.544147 -2.406463 0
M  V30 67 H -0.360869 3.404776 -2.953560 0
M  V30 68 H -1.267904 1.912787 -2.407012 0
M  V30 69 H -3.342198 -1.166876 -2.137649 0
M  V30 70 H -5.066366 -1.392887 -1.508326 0
M  V30 71 H -4.288111 -2.582018 -2.580154 0
M  V30 72 H -4.805802 -4.365748 -1.193853 0
M  V30 73 H -3.431279 -7.024431 0.556065 0
M  V30 74 H -4.948276 -6.368786 -0.252399 0
M  V30 75 H -4.804098 -6.429739 1.507762 0
M  V30 76 H -2.353181 -5.034819 2.167967 0
M  V30 77 H -0.228775 -3.172719 2.121357 0
M  V30 78 H -1.538759 -2.935502 3.282035 0
M  V30 79 H -1.038927 -1.585088 2.177975 0
M  V30 END ATOM
M  V30 BEGIN BOND
M  V30 1 1 1 2
M  V30 2 2 2 3
M  V30 3 1 3 4
M  V30 4 2 4 5
M  V30 5 1 5 6
M  V30 6 2 6 7
M  V30 7 1 7 8
M  V30 8 2 8 9
M  V30 9 1 9 10
M  V30 10 1 10 11
M  V30 11 1 10 12
M  V30 12 1 12 13
M  V30 13 1 12 14
M  V30 14 1 2 15
M  V30 15 1 2 16
M  V30 16 1 16 17
M  V30 17 1 17 18
M  V30 18 1 18 19
M  V30 19 1 19 20
M  V30 20 1 20 21
M  V30 21 2 21 22
M  V30 22 1 22 23
M  V30 23 1 22 24
M  V30 24 2 24 25
M  V30 25 1 25 26
M  V30 26 1 25 27
M  V30 27 2 27 28
M  V30 28 1 28 29
M  V30 29 1 17 30
M  V30 30 2 30 31
M  V30 31 1 31 32
M  V30 32 1 31 33
M  V30 33 2 33 34
M  V30 34 1 34 35
M  V30 35 1 34 36
M  V30 36 2 36 37
M  V30 37 1 37 38
M  V30 38 9 12 2
M  V30 39 1 20 16
M  V30 40 1 28 21
M  V30 41 1 37 30
M  V30 42 1 9 4
M  V30 43 1 3 39
M  V30 44 1 5 40
M  V30 45 1 6 41
M  V30 46 1 7 42
M  V30 47 1 8 43
M  V30 48 1 10 44
M  V30 49 1 11 45
M  V30 50 1 11 46
M  V30 51 1 11 47
M  V30 52 1 13 48
M  V30 53 1 13 49
M  V30 54 1 13 50
M  V30 55 1 14 51
M  V30 56 1 14 52
M  V30 57 1 14 53
M  V30 58 1 18 54
M  V30 59 1 18 55
M  V30 60 1 19 56
M  V30 61 1 19 57
M  V30 62 1 23 58
M  V30 63 1 23 59
M  V30 64 1 23 60
M  V30 65 1 24 61
M  V30 66 1 26 62
M  V30 67 1 26 63
M  V30 68 1 26 64
M  V30 69 1 27 65
M  V30 70 1 29 66
M  V30 71 1 29 67
M  V30 72 1 29 68
M  V30 73 1 32 69
M  V30 74 1 32 70
M  V30 75 1 32 71
M  V30 76 1 33 72
M  V30 77 1 35 73
M  V30 78 1 35 74
M  V30 79 1 35 75
M  V30 80 1 36 76
M  V30 81 1 38 77
M  V30 82 1 38 78
M  V30 83 1 38 79
M  V30 END BOND
M  V30 END CTAB
M  END
