
 OpenBabel09252518283D

 43 45  0  0  0  0  0  0  0  0999 V2000
    0.9366   -0.0558    0.0535 C   0  0  0  0  0  0  0  0  0  0  0  0
    0.4299    0.1995    1.4636 C   0  0  0  0  0  0  0  0  0  0  0  0
    0.9199    1.5041    1.9317 N   0  0  0  0  0  4  0  0  0  0  0  0
    0.2299    2.9933    0.6703 Pt  0  0  0  0  0  0  0  0  0  0  0  0
   -1.2390    3.0786    1.0198 N   0  0  0  0  0  4  0  0  0  0  0  0
   -1.3655    4.8419    1.5109 C   0  0  0  0  0  0  0  0  0  0  0  0
   -2.3981    5.6731    0.7672 C   0  0  0  0  0  0  0  0  0  0  0  0
    0.3386    5.2861    1.2474 C   0  0  0  0  0  0  0  0  0  0  0  0
    0.9640    6.4021    1.4008 C   0  0  0  0  0  0  0  0  0  0  0  0
    2.3356    6.4959    1.1265 C   0  0  0  0  0  0  0  0  0  0  0  0
    3.0103    5.3522    0.6690 C   0  0  0  0  0  0  0  0  0  0  0  0
    2.3537    4.2023    0.5136 C   0  0  0  0  0  0  0  0  0  0  0  0
    0.9608    4.1121    0.8010 C   0  0  0  0  0  0  0  0  0  0  0  0
    0.4323    2.6255   -1.3566 N   0  0  0  0  0  0  0  0  0  0  0  0
    0.0206    3.5177   -2.2315 C   0  0  0  0  0  0  0  0  0  0  0  0
   -0.3772    4.3796   -3.0765 O   0  0  0  0  0  0  0  0  0  0  0  0
   -1.0901    0.1995    1.4636 C   0  0  0  0  0  0  0  0  0  0  0  0
   -1.8138   -1.0228    1.5427 C   0  0  0  0  0  0  0  0  0  0  0  0
   -3.1861   -1.0316    1.2439 C   0  0  0  0  0  0  0  0  0  0  0  0
   -3.8423    0.0887    1.1663 C   0  0  0  0  0  0  0  0  0  0  0  0
   -3.1843    1.3052    1.3909 C   0  0  0  0  0  0  0  0  0  0  0  0
   -1.7687    1.3457    1.3895 C   0  0  0  0  0  0  0  0  0  0  0  0
    0.5799    0.7140   -0.5985 H   0  0  0  0  0  0  0  0  0  0  0  0
    0.5799   -1.0053   -0.2872 H   0  0  0  0  0  0  0  0  0  0  0  0
    2.0066   -0.0558    0.0535 H   0  0  0  0  0  0  0  0  0  0  0  0
    0.7866   -0.5703    2.1156 H   0  0  0  0  0  0  0  0  0  0  0  0
    0.5799    1.6754    2.8779 H   0  0  0  0  0  0  0  0  0  0  0  0
    1.9399    1.5041    1.9317 H   0  0  0  0  0  0  0  0  0  0  0  0
   -1.8710    2.8005    0.2690 H   0  0  0  0  0  0  0  0  0  0  0  0
   -1.4794    2.4550    1.7904 H   0  0  0  0  0  0  0  0  0  0  0  0
   -1.6628    4.9592    2.5320 H   0  0  0  0  0  0  0  0  0  0  0  0
   -3.3759    5.2843    0.9613 H   0  0  0  0  0  0  0  0  0  0  0  0
   -2.3456    6.6886    1.1002 H   0  0  0  0  0  0  0  0  0  0  0  0
   -2.1999    5.6316   -0.2835 H   0  0  0  0  0  0  0  0  0  0  0  0
    0.4313    7.2656    1.7408 H   0  0  0  0  0  0  0  0  0  0  0  0
    2.8578    7.4199    1.2629 H   0  0  0  0  0  0  0  0  0  0  0  0
    4.0551    5.4038    0.4443 H   0  0  0  0  0  0  0  0  0  0  0  0
    2.8791    3.3363    0.1688 H   0  0  0  0  0  0  0  0  0  0  0  0
   -1.3173   -1.9270    1.8271 H   0  0  0  0  0  0  0  0  0  0  0  0
   -3.6919   -1.9601    1.0801 H   0  0  0  0  0  0  0  0  0  0  0  0
   -4.8860    0.0813    0.9306 H   0  0  0  0  0  0  0  0  0  0  0  0
   -3.7481    2.1983    1.5625 H   0  0  0  0  0  0  0  0  0  0  0  0
   -1.2518    2.2807    1.3300 H   0  0  0  0  0  0  0  0  0  0  0  0
  1  2  1  0  0  0  0
  1 23  1  0  0  0  0
  1 24  1  0  0  0  0
  1 25  1  0  0  0  0
  2  3  1  0  0  0  0
  2 17  1  0  0  0  0
  2 26  1  0  0  0  0
  3  4  1  0  0  0  0
  3 27  1  0  0  0  0
  3 28  1  0  0  0  0
  4  5  1  0  0  0  0
  4 13  1  0  0  0  0
  4 14  1  0  0  0  0
  5  6  1  0  0  0  0
  5 29  1  0  0  0  0
  5 30  1  0  0  0  0
  6  7  1  0  0  0  0
  6  8  1  0  0  0  0
  6 31  1  0  0  0  0
  7 32  1  0  0  0  0
  7 33  1  0  0  0  0
  7 34  1  0  0  0  0
  8  9  1  0  0  0  0
  8 13  2  0  0  0  0
  9 10  2  0  0  0  0
  9 35  1  0  0  0  0
 10 11  1  0  0  0  0
 10 36  1  0  0  0  0
 11 12  2  0  0  0  0
 11 37  1  0  0  0  0
 12 13  1  0  0  0  0
 12 38  1  0  0  0  0
 14 15  2  0  0  0  0
 15 16  2  0  0  0  0
 17 18  1  0  0  0  0
 17 22  2  0  0  0  0
 18 19  2  0  0  0  0
 18 39  1  0  0  0  0
 19 20  1  0  0  0  0
 19 40  1  0  0  0  0
 20 21  2  0  0  0  0
 20 41  1  0  0  0  0
 21 22  1  0  0  0  0
 21 42  1  0  0  0  0
 22 43  1  0  0  0  0
M  END
$$$$
