
     RDKit          3D

 46 54  0  0  0  0  0  0  0  0999 V2000
    0.3123    2.6721    0.0385 Cl  0  0  0  0  0  0  0  0  0  0  0  0
   -0.4424    0.7228   -0.1881 Ir  0  0  0  0  0  9  0  0  0  0  0  0
   -0.2988    1.4109   -2.0516 C   0  0  0  0  0  0  0  0  0  0  0  0
    0.6409    0.6690   -1.7140 C   0  0  0  0  0  0  0  0  0  0  0  0
    1.8727   -0.1717   -1.5852 C   0  0  0  0  0  0  0  0  0  0  0  0
    2.7719   -0.6210   -2.5749 C   0  0  0  0  0  0  0  0  0  0  0  0
    3.9248   -1.2292   -2.2422 C   0  0  0  0  0  0  0  0  0  0  0  0
    4.1477   -1.3677   -0.9275 C   0  0  0  0  0  0  0  0  0  0  0  0
    3.2372   -0.9175    0.0009 C   0  0  0  0  0  0  0  0  0  0  0  0
    3.7815   -1.0667    1.2951 C   0  0  0  0  0  0  0  0  0  0  0  0
    3.0058   -0.5407    2.2827 C   0  0  0  0  0  0  0  0  0  0  0  0
    1.8346    0.0361    1.8996 C   0  0  0  0  0  0  0  0  0  0  0  0
    1.1819    0.2366    0.6345 C   0  0  0  0  0  0  0  0  0  0  0  0
    2.0170   -0.2916   -0.2793 C   0  0  0  0  0  0  0  0  0  0  0  0
   -2.0800    0.2330   -0.6529 C   0  0  0  0  0  0  0  0  0  0  0  0
   -2.9966   -0.2450   -1.5489 C   0  0  0  0  0  0  0  0  0  0  0  0
   -1.1232   -0.6973   -0.3901 C   0  0  0  0  0  0  0  0  0  0  0  0
   -0.7969   -2.0325   -0.7725 C   0  0  0  0  0  0  0  0  0  0  0  0
   -1.1938   -0.2282    0.8859 C   0  0  0  0  0  0  0  0  0  0  0  0
   -1.8041   -1.0934    1.7241 C   0  0  0  0  0  0  0  0  0  0  0  0
   -1.3545    1.2097    1.1287 C   0  0  0  0  0  0  0  0  0  0  0  0
   -1.2862    1.5533    2.5298 C   0  0  0  0  0  0  0  0  0  0  0  0
   -2.0091    1.4717    0.0469 C   0  0  0  0  0  0  0  0  0  0  0  0
   -2.8572    2.5181   -0.2953 C   0  0  0  0  0  0  0  0  0  0  0  0
   -0.5093    1.9601   -3.0532 H   0  0  0  0  0  0  0  0  0  0  0  0
    2.5177   -0.4745   -3.6283 H   0  0  0  0  0  0  0  0  0  0  0  0
    4.5473   -1.5415   -3.0445 H   0  0  0  0  0  0  0  0  0  0  0  0
    5.0791   -1.8527   -0.6846 H   0  0  0  0  0  0  0  0  0  0  0  0
    4.7028   -1.5326    1.5620 H   0  0  0  0  0  0  0  0  0  0  0  0
    3.2120   -0.5263    3.3315 H   0  0  0  0  0  0  0  0  0  0  0  0
    1.2511    0.4778    2.7206 H   0  0  0  0  0  0  0  0  0  0  0  0
   -3.9329   -0.6256   -1.0399 H   0  0  0  0  0  0  0  0  0  0  0  0
   -2.7786   -1.0576   -2.2934 H   0  0  0  0  0  0  0  0  0  0  0  0
   -3.4101    0.5725   -2.2234 H   0  0  0  0  0  0  0  0  0  0  0  0
   -1.0057   -2.7034    0.0868 H   0  0  0  0  0  0  0  0  0  0  0  0
    0.2913   -2.2504   -0.9946 H   0  0  0  0  0  0  0  0  0  0  0  0
   -1.3090   -2.3042   -1.7110 H   0  0  0  0  0  0  0  0  0  0  0  0
   -2.3008   -0.6250    2.6172 H   0  0  0  0  0  0  0  0  0  0  0  0
   -1.1240   -1.8777    2.1765 H   0  0  0  0  0  0  0  0  0  0  0  0
   -2.6487   -1.7375    1.3255 H   0  0  0  0  0  0  0  0  0  0  0  0
   -1.0541    0.8099    3.2839 H   0  0  0  0  0  0  0  0  0  0  0  0
   -0.4887    2.3497    2.6608 H   0  0  0  0  0  0  0  0  0  0  0  0
   -2.2195    2.1124    2.7600 H   0  0  0  0  0  0  0  0  0  0  0  0
   -3.8135    2.4092    0.2562 H   0  0  0  0  0  0  0  0  0  0  0  0
   -2.4705    3.5223    0.0496 H   0  0  0  0  0  0  0  0  0  0  0  0
   -3.0211    2.6642   -1.4019 H   0  0  0  0  0  0  0  0  0  0  0  0
  1  2  1  0
  2  3  1  0
  3  4  2  0
  4  5  1  0
  5  6  2  0
  6  7  1  0
  7  8  2  0
  8  9  1  0
  9 10  2  0
 10 11  1  0
 11 12  2  0
 12 13  1  0
 13 14  2  0
  2 15  1  0
 15 16  1  0
 15 17  1  0
 17 18  1  0
 17 19  1  0
 19 20  1  0
 19 21  1  0
 21 22  1  0
 21 23  1  0
 23 24  1  0
  4  2  1  0
 14  5  1  0
 23 15  1  0
 13  2  1  0
 17  2  1  0
 19  2  1  0
 21  2  1  0
 23  2  1  0
 14  9  1  0
  3 25  1  0
  6 26  1  0
  7 27  1  0
  8 28  1  0
 10 29  1  0
 11 30  1  0
 12 31  1  0
 16 32  1  0
 16 33  1  0
 16 34  1  0
 18 35  1  0
 18 36  1  0
 18 37  1  0
 20 38  1  0
 20 39  1  0
 20 40  1  0
 22 41  1  0
 22 42  1  0
 22 43  1  0
 24 44  1  0
 24 45  1  0
 24 46  1  0
M  END
