
  --CCDC--092525    3D                              

 87103  0  0  0  0  0  0  0  0999 V2000
   -0.1235    0.1797   -0.1880 H      0
   -1.8748    0.4203   -0.0964 Ru     0
   -1.2448    2.3487    1.2516 Cl     0
    0.6483    1.7711   -0.1666 Ru     0
   -1.2248    2.1669   -1.7808 P      3
   -0.7842    1.6466   -3.4610 C      0
   -1.3770    2.2825   -4.5472 C      0
   -1.0677    1.9018   -5.8423 C      0
   -0.1720    0.8804   -6.0702 C      0
    0.4106    0.2307   -5.0043 C      0
    0.1033    0.6036   -3.7064 C      0
   -1.9289    3.8282   -1.6064 C      0
   -1.4044    4.8674   -2.3679 C      0
   -1.8983    6.1548   -2.2395 C      0
   -2.9119    6.4235   -1.3461 C      0
   -3.4310    5.4074   -0.5742 C      0
   -2.9415    4.1176   -0.6966 C      0
    2.1049    1.6604   -1.5917 C      0
    3.5585    1.6117   -2.0218 C      0
    2.3174    0.7040   -0.3880 C      0
    2.4305   -0.7881   -0.6124 C      0
    2.1545    1.2440    1.0561 C      0
    2.1219    0.2763    2.2186 C      0
    1.6813    2.6970    1.2937 C      0
    1.1933    3.0670    2.6786 C      0
    1.3463    3.6205    0.0955 C      0
    0.5672    4.9016    0.3040 C      0
    1.6337    3.1213   -1.3427 C      0
    2.7729    4.0935   -1.5833 C      0
   -3.1603    0.0745    1.4522 C      0
   -4.1524   -0.8080    2.1855 C      0
   -2.1652   -1.0814    1.1819 C      0
   -1.2292   -1.5631    2.2686 C      0
   -1.9824   -1.5828   -0.2694 C      0
   -0.8682   -2.5621   -0.5665 C      0
   -2.6648   -0.8521   -1.4492 C      0
   -2.2231   -1.2096   -2.8518 C      0
   -3.5487    0.3914   -1.1917 C      0
   -4.0050    1.2722   -2.3381 C      0
   -3.8433    0.8234    0.2679 C      0
   -5.3214    0.4840    0.2024 C      0
   -2.0858    3.0864   -4.3781 H      0
   -1.5325    2.4102   -6.6807 H      0
    0.0718    0.5867   -7.0859 H      0
    1.1109   -0.5787   -5.1823 H      0
    0.5528    0.0707   -2.8755 H      0
   -0.6020    4.6671   -3.0702 H      0
   -1.4849    6.9551   -2.8445 H      0
   -3.2986    7.4326   -1.2492 H      0
   -4.2257    5.6187    0.1337 H      0
   -3.3517    3.3277   -0.0772 H      0
    3.8656    0.5872   -2.2191 H      0
    4.2122    2.0091   -1.2479 H      0
    3.7215    2.1744   -2.9389 H      0
    2.2893   -1.0328   -1.6631 H      0
    1.6795   -1.3223   -0.0346 H      0
    3.4106   -1.1500   -0.3087 H      0
    1.0966    0.0467    2.4995 H      0
    2.6204    0.7031    3.0864 H      0
    2.6231   -0.6559    1.9673 H      0
    0.7115    2.2171    3.1572 H      0
    0.4727    3.8806    2.6427 H      0
    2.0244    3.3805    3.3068 H      0
    0.7410    5.5954   -0.5158 H      0
    0.8689    5.3890    1.2288 H      0
   -0.5009    4.7046    0.3594 H      0
    3.1357    4.0369   -2.6077 H      0
    3.6041    3.9044   -0.9067 H      0
    2.4431    5.1169   -1.4198 H      0
   -4.5738   -1.5634    1.5251 H      0
   -4.9650   -0.2244    2.6131 H      0
   -3.6664   -1.3264    3.0089 H      0
   -1.3418   -2.6336    2.4270 H      0
   -1.4362   -1.0574    3.2094 H      0
   -0.1937   -1.3692    1.9985 H      0
   -1.1581   -3.2435   -1.3637 H      0
   -0.6265   -3.1549    0.3131 H      0
    0.0314   -2.0382   -0.8815 H      0
   -2.7874   -2.0632   -3.2215 H      0
   -1.1685   -1.4746   -2.8706 H      0
   -2.3722   -0.3867   -3.5447 H      0
   -4.9589    0.9182   -2.7236 H      0
   -3.3018    1.2767   -3.1640 H      0
   -4.1466    2.2974   -2.0077 H      0
   -5.8147    1.0391   -0.5919 H      0
   -5.8317    0.7477    1.1265 H      0
   -5.4742   -0.5760    0.0095 H      0
  1  2  1
  2  3  1
  3  4  1
  1  4  1
  2  4  1
  4  5  1
  2  5  1
  5  6  1
  6  7  4
  7  8  4
  8  9  4
  9 10  4
 10 11  4
  6 11  4
  5 12  1
 12 13  4
 13 14  4
 14 15  4
 15 16  4
 16 17  4
 12 17  4
  4 18  1
 18 19  1
 18 20  4
  4 20  1
 20 21  1
 20 22  4
  4 22  1
 22 23  1
 22 24  4
  4 24  1
 24 25  1
 24 26  4
  4 26  1
 26 27  1
 26 28  4
  4 28  1
 18 28  4
 28 29  1
  2 30  1
 30 31  1
 30 32  4
  2 32  1
 32 33  1
 32 34  4
  2 34  1
 34 35  1
 34 36  4
  2 36  1
 36 37  1
 36 38  4
  2 38  1
 38 39  1
 38 40  4
  2 40  1
 30 40  4
 40 41  1
  7 42  1
  8 43  1
  9 44  1
 10 45  1
 11 46  1
 13 47  1
 14 48  1
 15 49  1
 16 50  1
 17 51  1
 19 52  1
 19 53  1
 19 54  1
 21 55  1
 21 56  1
 21 57  1
 23 58  1
 23 59  1
 23 60  1
 25 61  1
 25 62  1
 25 63  1
 27 64  1
 27 65  1
 27 66  1
 29 67  1
 29 68  1
 29 69  1
 31 70  1
 31 71  1
 31 72  1
 33 73  1
 33 74  1
 33 75  1
 35 76  1
 35 77  1
 35 78  1
 37 79  1
 37 80  1
 37 81  1
 39 82  1
 39 83  1
 39 84  1
 41 85  1
 41 86  1
 41 87  1
M  CHG  1   5   1
M  END
$$$$
