
 OpenBabel09252512553D

 36 38  0  0  1  0  0  0  0  0999 V2000
    7.8479    7.3621   -3.8318 H   0  0  0  0  0  0  0  0  0  0  0  0
    7.7518    6.6446   -3.0438 C   0  0  0  0  0  0  0  0  0  0  0  0
    8.0439    6.9021   -2.0472 H   0  0  0  0  0  0  0  0  0  0  0  0
    7.2582    5.4050   -3.3091 C   0  0  0  0  0  0  0  0  0  0  0  0
    6.9660    5.1475   -4.3058 H   0  0  0  0  0  0  0  0  0  0  0  0
    7.1216    4.3858   -2.1898 C   0  0  1  0  0  0  0  0  0  0  0  0
    8.0836    4.1948   -1.7620 H   0  0  0  0  0  0  0  0  0  0  0  0
    6.1901    4.9306   -1.1193 C   0  0  0  0  0  0  0  0  0  0  0  0
    5.2281    5.1216   -1.5471 H   0  0  0  0  0  0  0  0  0  0  0  0
    6.0940    4.2131   -0.3314 H   0  0  0  0  0  0  0  0  0  0  0  0
    6.5925    5.8406   -0.7259 H   0  0  0  0  0  0  0  0  0  0  0  0
    6.5499    3.0930   -2.7487 C   0  0  1  0  0  0  0  0  0  0  0  0
    5.5880    3.2840   -3.1765 H   0  0  0  0  0  0  0  0  0  0  0  0
    7.4508    2.5661   -3.7840 N   0  0  0  0  0  0  0  0  0  0  0  0
    7.7066    3.2606   -4.8171 N   0  0  0  0  0  4  0  0  0  0  0  0
    7.9624    3.9551   -5.8503 N   0  0  0  0  0  0  0  0  0  0  0  0
    6.2209    2.0939   -1.6515 C   0  0  2  0  0  0  0  0  0  0  0  0
    5.1509    2.0939   -1.6515 H   0  0  0  0  0  0  0  0  0  0  0  0
    6.9914    2.7729   -0.8181 C   0  0  1  0  0  0  0  0  0  0  0  0
    6.9597    3.2941    0.1158 H   0  0  0  0  0  0  0  0  0  0  0  0
    8.3900    2.4555   -1.2071 C   0  0  1  0  0  0  0  0  0  0  0  0
    9.0433    2.3578   -2.0488 H   0  0  0  0  0  0  0  0  0  0  0  0
    8.3010    1.6177   -2.2265 C   0  0  2  0  0  0  0  0  0  0  0  0
    8.9813    0.7920   -2.2433 H   0  0  0  0  0  0  0  0  0  0  0  0
    9.4740    0.9983   -2.9686 C   0  0  0  0  0  0  0  0  0  0  0  0
    9.4234   -0.0676   -2.8896 H   0  0  0  0  0  0  0  0  0  0  0  0
    9.4336    1.2818   -3.9996 H   0  0  0  0  0  0  0  0  0  0  0  0
   10.3908    1.3446   -2.5391 H   0  0  0  0  0  0  0  0  0  0  0  0
    7.0032    1.4045   -2.4976 Fe  0  0  0  0  0  0  0  0  0  0  0  0
    6.3564    0.0015   -1.1049 C   0  0  0  0  0  0  0  0  0  0  0  0
    5.9776   -0.8201   -0.2893 O   0  0  0  0  0  0  0  0  0  0  0  0
    7.9922    1.1323   -4.3071 C   0  0  0  0  0  0  0  0  0  0  0  0
    8.5713    0.9729   -5.3668 O   0  0  0  0  0  0  0  0  0  0  0  0
    6.1590    2.1790   -0.7616 C   0  0  0  0  0  0  0  0  0  0  0  0
    5.6646    2.6326    0.2550 O   0  0  0  0  0  0  0  0  0  0  0  0
    7.4046    4.7832   -6.0592 H   0  0  0  0  0  0  0  0  0  0  0  0
  1  2  1  0  0  0  0
  2  3  1  0  0  0  0
  2  4  2  0  0  0  0
  4  5  1  0  0  0  0
  4  6  1  0  0  0  0
  6  7  1  1  0  0  0
  6  8  1  0  0  0  0
  6 12  1  0  0  0  0
  8  9  1  0  0  0  0
  8 10  1  0  0  0  0
  8 11  1  0  0  0  0
 12 13  1  6  0  0  0
 12 14  1  0  0  0  0
 14 15  2  0  0  0  0
 15 16  2  0  0  0  0
 16 36  1  0  0  0  0
 17 19  2  0  0  0  0
 17 29  1  0  0  0  0
 17 18  1  1  0  0  0
 17 12  1  0  0  0  0
 19 20  1  6  0  0  0
 19 21  1  0  0  0  0
 19 29  1  0  0  0  0
 21 22  1  6  0  0  0
 21 23  2  0  0  0  0
 21 29  1  0  0  0  0
 23 24  1  1  0  0  0
 23 25  1  0  0  0  0
 23 29  1  0  0  0  0
 25 26  1  0  0  0  0
 25 27  1  0  0  0  0
 25 28  1  0  0  0  0
 29 30  1  0  0  0  0
 29 32  1  0  0  0  0
 29 34  1  0  0  0  0
 30 31  3  0  0  0  0
 32 33  3  0  0  0  0
 34 35  3  0  0  0  0
M  END
$$$$
