
  --CCDC--092525    3D                              

 75 87  0  0  0  0  0  0  0  0999 V2000
    0.9492   -0.1118    0.3888 Cl     0
    1.4065    2.4987   -0.2910 Zr     0
    3.5461    1.6317    1.1836 Cl     0
   -0.4940    3.8489    0.1548 C      0
   -0.6228    2.4603    0.9735 C      0
    0.6428    2.5666    1.9478 C      0
    0.9666    1.6939    2.9728 C      0
    1.9845    2.0523    3.8576 C      0
    2.7511    3.1905    3.6561 C      0
    2.5497    4.0094    2.5441 C      0
    1.4683    3.7434    1.7221 C      0
    0.8589    4.6489    0.5679 C      0
    1.7400    6.0228   -0.3522 Si     0
    0.6374    6.7686   -1.6807 C      0
    2.1762    7.4056    0.8436 C      0
    3.6597    4.9632   -1.1866 Si     0
    4.4842    5.9593   -2.5506 C      0
    4.9644    4.5858    0.1129 C      0
    2.9027    3.4076   -1.8939 C      0
    1.4211    3.2695   -2.5371 C      0
    0.8471    1.7566   -2.4807 C      0
    2.1442    0.9897   -1.9525 C      0
    2.2833   -0.3784   -1.7950 C      0
    3.5208   -0.8844   -1.4011 C      0
    4.5860   -0.0489   -1.1088 C      0
    4.4550    1.3406   -1.1550 C      0
    3.2631    1.8794   -1.6108 C      0
   -0.8218    1.1008   -3.0069 Si     0
   -0.7395    0.6821   -4.8318 C      0
   -2.1471    2.4156   -2.8426 C      0
   -1.2387   -0.5044   -2.1347 C      0
   -2.0885    1.2923    1.1757 Si     0
   -3.3976    1.3512   -0.1630 C      0
   -2.9928    1.9519    2.6788 C      0
   -1.7484   -0.4951    1.6317 C      0
   -0.9443    3.9693   -0.8417 H      0
    0.4097    0.7734    3.1130 H      0
    2.1909    1.4184    4.7136 H      0
    3.5386    3.4341    4.3616 H      0
    3.1941    4.8620    2.3572 H      0
    0.1558    6.0007   -2.2794 H      0
    1.2183    7.4005   -2.3494 H      0
   -0.1413    7.3815   -1.2315 H      0
    2.7945    7.0314    1.6569 H      0
    1.2769    7.8411    1.2742 H      0
    2.7257    8.1955    0.3359 H      0
    3.7761    6.1851   -3.3451 H      0
    5.3148    5.4061   -2.9839 H      0
    4.8693    6.8999   -2.1623 H      0
    4.5410    4.0376    0.9489 H      0
    5.3963    5.5063    0.5002 H      0
    5.7686    3.9886   -0.3116 H      0
    0.7228    4.1175   -2.5139 H      0
    1.4560   -1.0473   -2.0093 H      0
    3.6523   -1.9584   -1.3196 H      0
    5.5360   -0.4830   -0.8152 H      0
    5.2818    1.9843   -0.8736 H      0
   -1.6949    0.2977   -5.1828 H      0
    0.0199   -0.0740   -5.0201 H      0
   -0.4926    1.5640   -5.4190 H      0
   -3.1303    2.0043   -3.0616 H      0
   -1.9610    3.2328   -3.5363 H      0
   -2.1647    2.8312   -1.8396 H      0
   -1.2097   -0.3808   -1.0576 H      0
   -0.5251   -1.2813   -2.4011 H      0
   -2.2327   -0.8487   -2.4126 H      0
   -3.1259    0.7381   -1.0149 H      0
   -3.5494    2.3712   -0.5098 H      0
   -4.3470    0.9816    0.2189 H      0
   -3.8783    1.3555    2.8887 H      0
   -3.3075    2.9811    2.5187 H      0
   -2.3510    1.9265    3.5570 H      0
   -2.5868   -0.9096    2.1877 H      0
   -0.8602   -0.5734    2.2551 H      0
   -1.6047   -1.1124    0.7487 H      0
  1  2  1
  2  3  1
  2  4  1
  4  5  1
  2  5  1
  5  6  1
  2  6  1
  6  7  4
  7  8  4
  8  9  4
  9 10  4
 10 11  4
  2 11  1
  6 11  4
 11 12  1
  2 12  1
  4 12  1
 12 13  1
 13 14  1
 13 15  1
 13 16  1
 16 17  1
 16 18  1
 16 19  1
  2 19  1
 19 20  1
  2 20  1
 20 21  1
  2 21  1
 21 22  1
  2 22  1
 22 23  4
 23 24  4
 24 25  4
 25 26  4
 26 27  4
  2 27  1
 19 27  1
 22 27  4
 21 28  1
 28 29  1
 28 30  1
 28 31  1
  5 32  1
 32 33  1
 32 34  1
 32 35  1
  4 36  1
  7 37  1
  8 38  1
  9 39  1
 10 40  1
 14 41  1
 14 42  1
 14 43  1
 15 44  1
 15 45  1
 15 46  1
 17 47  1
 17 48  1
 17 49  1
 18 50  1
 18 51  1
 18 52  1
 20 53  1
 23 54  1
 24 55  1
 25 56  1
 26 57  1
 29 58  1
 29 59  1
 29 60  1
 30 61  1
 30 62  1
 30 63  1
 31 64  1
 31 65  1
 31 66  1
 33 67  1
 33 68  1
 33 69  1
 34 70  1
 34 71  1
 34 72  1
 35 73  1
 35 74  1
 35 75  1
M  END
$$$$
