
  --CCDC--092525    3D                              

 68 74  0  0  0  0  0  0  0  0999 V2000
    3.0000    0.1850   -5.5638 H      0
    3.9699   -0.2582   -5.3502 C      0
    4.1091   -1.1086   -6.0143 H      0
    4.7362    0.4795   -5.5787 H      0
    4.0695   -0.7617   -3.6529 S      0
    3.9321    0.4639   -2.9207 O      0
    1.9182    0.4054   -1.2087 U      3
    0.9861    0.4354   -3.6826 O      0
    0.8183   -0.8855   -4.2240 S      0
    0.4086   -0.6013   -5.9262 C      0
   -0.4528    0.0580   -6.0097 H      0
    0.1677   -1.5374   -6.4257 H      0
    1.2396   -0.1400   -6.4552 H      0
   -0.7747   -1.4433   -3.6794 C      0
   -1.1288   -2.2606   -4.3043 H      0
   -1.5049   -0.6383   -3.7288 H      0
   -0.7290   -1.8020   -2.6541 H      0
   -0.7191    0.3601   -1.2921 O      0
   -1.3237   -0.5124   -0.3640 C      0
   -2.5345   -0.5945   -0.2510 O      0
   -0.4354   -1.4406    0.4557 C      0
   -0.2747   -2.3457   -0.1413 H      0
   -0.9668   -1.7653    1.3588 H      0
    0.8038   -0.8557    0.8189 N      0
    1.6273   -2.0002    1.1118 C      0
    1.3033   -2.4210    2.0717 H      0
    1.5108   -2.8113    0.3902 H      0
    3.0752   -1.5660    1.2256 C      0
    3.1297   -0.7204    1.9171 H      0
    3.6710   -2.3695    1.6760 H      0
    3.6180   -1.2423   -0.0642 N      0
    3.8727   -2.4249   -0.8196 C      0
    4.2030   -3.2178   -0.1374 H      0
    4.7235   -2.2473   -1.4879 H      0
    2.7225   -2.9440   -1.6781 C      0
    2.7166   -4.1199   -1.9985 O      0
    1.7362   -2.0535   -2.1427 O      0
    4.8892   -0.5748   -0.0748 C      0
    5.6406   -1.2117    0.4081 H      0
    5.2349   -0.4064   -1.1016 H      0
    4.8092    0.7581    0.6414 C      0
    4.4365    0.6541    1.6636 H      0
    5.8133    1.1899    0.7356 H      0
    4.0063    1.6172   -0.1659 N      0
    4.5785    1.9133   -0.9786 H      0
    3.5609    2.7681    0.5343 C      0
    4.3692    3.1376    1.1773 H      0
    3.3075    3.5909   -0.1396 H      0
    2.3877    2.3061    1.3799 C      0
    2.6908    1.4230    1.9449 H      0
    2.1910    3.0742    2.1379 H      0
    1.1651    2.0804    0.6718 N      0
    0.5219    3.2631    0.1628 C      0
    0.5604    4.0528    0.9233 H      0
   -0.5433    3.0697   -0.0088 H      0
    1.0992    3.7843   -1.1508 C      0
    0.9819    4.9693   -1.4104 O      0
    1.6859    2.8880   -2.0682 O      0
    0.1649    1.4733    1.5076 C      0
    0.0269    2.0840    2.4084 H      0
   -0.8109    1.4596    1.0137 H      0
    0.5662    0.0601    1.9096 C      0
   -0.2202   -0.3602    2.5487 H      0
    1.4525    0.0932    2.5513 H      0
    5.8047   -1.1247   -3.5963 C      0
    6.0421   -1.9696   -4.2393 H      0
    6.1170   -1.3726   -2.5842 H      0
    6.3885   -0.2699   -3.9315 H      0
  1  2  1
  2  3  1
  2  4  1
  2  5  1
  5  6  2
  6  7  1
  7  8  1
  8  9  2
  9 10  1
 10 11  1
 10 12  1
 10 13  1
  9 14  1
 14 15  1
 14 16  1
 14 17  1
  7 18  1
 18 19  1
 19 20  2
 19 21  1
 21 22  1
 21 23  1
 21 24  1
  7 24  1
 24 25  1
 25 26  1
 25 27  1
 25 28  1
 28 29  1
 28 30  1
 28 31  1
  7 31  1
 31 32  1
 32 33  1
 32 34  1
 32 35  1
 35 36  2
 35 37  1
  7 37  1
 31 38  1
 38 39  1
 38 40  1
 38 41  1
 41 42  1
 41 43  1
 41 44  1
  7 44  1
 44 45  1
 44 46  1
 46 47  1
 46 48  1
 46 49  1
 49 50  1
 49 51  1
 49 52  1
  7 52  1
 52 53  1
 53 54  1
 53 55  1
 53 56  1
 56 57  2
 56 58  1
  7 58  1
 52 59  1
 59 60  1
 59 61  1
 59 62  1
 24 62  1
 62 63  1
 62 64  1
  5 65  1
 65 66  1
 65 67  1
 65 68  1
M  CHG  1   7   1
M  END
$$$$
