
     RDKit          3D

 29 30  0  0  0  0  0  0  0  0999 V2000
   -1.3072   -1.1520   -0.8629 C   0  0  0  0  0  0  0  0  0  0  0  0
   -1.0970    0.2173   -0.4788 N   0  0  0  0  0  0  0  0  0  0  0  0
    0.0355    1.0685   -0.5633 C   0  0  0  0  0  0  0  0  0  0  0  0
   -0.4394    2.8263   -1.3912 Au  0  0  0  0  0  3  0  0  0  0  0  0
    1.8655    4.0781   -1.3670 Cl  0  0  0  0  0  0  0  0  0  0  0  0
    1.1775    0.4400   -0.0414 N   0  0  0  0  0  0  0  0  0  0  0  0
    1.4930    0.6474    1.3558 C   0  0  0  0  0  0  0  0  0  0  0  0
    2.4326   -0.4936    1.6539 C   0  0  0  0  0  0  0  0  0  0  0  0
    3.2772   -0.5385    0.3727 C   0  0  0  0  0  0  0  0  0  0  0  0
    2.1811   -0.4328   -0.6742 C   0  0  0  0  0  0  0  0  0  0  0  0
   -2.3599    0.6315    0.0656 C   0  0  0  0  0  0  0  0  0  0  0  0
   -3.4262   -0.1898   -0.5764 C   0  0  0  0  0  0  0  0  0  0  0  0
   -2.6544   -1.0529   -1.5530 C   0  0  0  0  0  0  0  0  0  0  0  0
   -1.4623   -1.7799    0.0442 H   0  0  0  0  0  0  0  0  0  0  0  0
   -0.5373   -1.5774   -1.5216 H   0  0  0  0  0  0  0  0  0  0  0  0
    2.0960    1.5818    1.5062 H   0  0  0  0  0  0  0  0  0  0  0  0
    0.6029    0.6313    2.0154 H   0  0  0  0  0  0  0  0  0  0  0  0
    1.8590   -1.4580    1.7540 H   0  0  0  0  0  0  0  0  0  0  0  0
    3.0644   -0.3003    2.5470 H   0  0  0  0  0  0  0  0  0  0  0  0
    3.8907    0.3843    0.3821 H   0  0  0  0  0  0  0  0  0  0  0  0
    3.8283   -1.4740    0.2760 H   0  0  0  0  0  0  0  0  0  0  0  0
    1.7640   -1.4213   -0.8566 H   0  0  0  0  0  0  0  0  0  0  0  0
    2.5514    0.0587   -1.5919 H   0  0  0  0  0  0  0  0  0  0  0  0
   -2.5335    1.6927   -0.2801 H   0  0  0  0  0  0  0  0  0  0  0  0
   -2.3952    0.6278    1.1732 H   0  0  0  0  0  0  0  0  0  0  0  0
   -4.2139    0.3957   -1.0902 H   0  0  0  0  0  0  0  0  0  0  0  0
   -3.9729   -0.8473    0.1429 H   0  0  0  0  0  0  0  0  0  0  0  0
   -2.5969   -0.5119   -2.5127 H   0  0  0  0  0  0  0  0  0  0  0  0
   -3.1226   -2.0516   -1.6852 H   0  0  0  0  0  0  0  0  0  0  0  0
  1  2  1  0
  2  3  1  0
  3  4  2  3
  4  5  1  0
  3  6  1  0
  6  7  1  0
  7  8  1  0
  8  9  1  0
  9 10  1  0
  2 11  1  0
 11 12  1  0
 12 13  1  0
 13  1  1  0
 10  6  1  0
  1 14  1  0
  1 15  1  0
  7 16  1  0
  7 17  1  0
  8 18  1  0
  8 19  1  0
  9 20  1  0
  9 21  1  0
 10 22  1  0
 10 23  1  0
 11 24  1  0
 11 25  1  0
 12 26  1  0
 12 27  1  0
 13 28  1  0
 13 29  1  0
M  END
