
  --CCDC--092525    3D                              

 64 65  0  0  0  0  0  0  0  0999 V2000
   -0.2652    0.3127   -0.4015 H      0
    0.4147    0.8825    0.2302 C      0
    0.8081    0.2374    1.0144 H      0
   -0.3511    1.9957    0.8699 C      0
   -1.4424    2.4799    0.3159 N      0
   -1.8525    3.5077    1.0860 N      0
   -3.0507    4.1434    0.9290 O      0
   -3.1166    3.8877   -0.4843 C      0
   -3.7288    4.6175   -1.0038 H      0
   -3.4620    2.8971   -0.7532 H      0
   -2.1930    3.8885   -1.0395 H      0
   -3.4037    2.8831    1.5677 C      0
   -3.7535    2.1163    0.8835 H      0
   -4.1218    2.9075    2.3756 H      0
   -2.6117    2.3904    2.1165 H      0
   -3.0790    4.9000    2.1435 C      0
   -3.4231    4.3702    3.0233 H      0
   -3.6243    5.8293    2.0511 H      0
   -2.1205    5.1953    2.5191 H      0
   -2.1974    5.5008    0.3863 P      0
   -1.3404    6.6483    1.5183 C      0
   -2.0187    7.1464    2.2093 H      0
   -0.8600    7.4310    0.9350 H      0
   -0.5518    6.1597    2.0891 H      0
   -3.1578    6.9728   -0.0474 C      0
   -3.6866    6.8552   -0.9875 H      0
   -2.4725    7.8051   -0.1941 H      0
   -3.8381    7.2719    0.7438 H      0
   -0.4768    5.1490   -0.1229 C      0
   -0.3669    4.2745   -0.7582 H      0
    0.2016    5.0349    0.7168 H      0
   -0.1025    5.9964   -0.6935 H      0
   -4.7440    4.2520    0.8272 P      0
   -5.6127    4.7805    2.3466 C      0
   -6.6836    4.6484    2.2071 H      0
   -5.3327    4.1873    3.2139 H      0
   -5.4649    5.8315    2.5847 H      0
   -5.5278    3.2465   -0.4816 C      0
   -5.2232    2.2036   -0.4202 H      0
   -6.6071    3.2671   -0.3453 H      0
   -5.3425    3.6089   -1.4917 H      0
   -5.6406    5.6253    0.0539 C      0
   -6.6931    5.3612   -0.0238 H      0
   -5.2904    5.8157   -0.9568 H      0
   -5.6012    6.5359    0.6432 H      0
   -1.0151    3.6719    2.1308 N      0
   -0.0798    2.7517    2.0212 C      0
    1.0791    2.7125    2.9839 C      0
    1.1600    1.6956    3.3651 H      0
    0.8521    3.3910    3.8050 H      0
    2.4351    3.1054    2.4187 C      0
    3.1421    3.0995    3.2469 H      0
    2.3397    4.1183    2.0301 H      0
    3.0303    2.2621    1.3200 C      0
    2.8905    1.2139    1.5801 H      0
    4.0951    2.4821    1.2592 H      0
    2.4069    2.5029   -0.0683 C      0
    3.2176    2.6971   -0.7691 H      0
    1.7682    3.3822    0.0006 H      0
    1.5757    1.3687   -0.6240 C      0
    1.1668    1.6976   -1.5782 H      0
    2.2413    0.5223   -0.7868 H      0
   -2.1805    5.6453   -1.0082 H      0
   -5.3733    3.1002    1.3159 H      0
  1  2  1
  2  3  1
  2  4  1
  4  5  2
  5  6  1
  6  7  1
  7  8  1
  8  9  1
  8 10  1
  8 11  1
  7 12  1
 12 13  1
 12 14  1
 12 15  1
  7 16  1
 16 17  1
 16 18  1
 16 19  1
  7 20  1
 20 21  1
 21 22  1
 21 23  1
 21 24  1
 20 25  1
 25 26  1
 25 27  1
 25 28  1
 20 29  1
 29 30  1
 29 31  1
 29 32  1
  7 33  1
 33 34  1
 34 35  1
 34 36  1
 34 37  1
 33 38  1
 38 39  1
 38 40  1
 38 41  1
 33 42  1
 42 43  1
 42 44  1
 42 45  1
  6 46  1
 46 47  2
  4 47  1
 47 48  1
 48 49  1
 48 50  1
 48 51  1
 51 52  1
 51 53  1
 51 54  1
 54 55  1
 54 56  1
 54 57  1
 57 58  1
 57 59  1
 57 60  1
  2 60  1
 60 61  1
 60 62  1
 20 63  1
 33 64  1
M  END
$$$$
