
 OpenBabel09252513163D

 73 85  0  0  0  0  0  0  0  0999 V2000
    1.0318    0.0633    0.0706 Cl  0  0  0  0  0  0  0  0  0  0  0  0
    3.8018    0.0633    0.0706 Zr  0  0  0  0  0  0  0  0  0  0  0  0
    5.6913   -1.1362   -1.5614 Cl  0  0  0  0  0  0  0  0  0  0  0  0
    3.7352   -0.1490    1.3494 C   0  0  0  0  0  0  0  0  0  0  0  0
    1.2770    0.2995    1.7422 C   0  0  0  0  0  0  0  0  0  0  0  0
    1.3727   -0.1432    0.4595 C   0  0  0  0  0  0  0  0  0  0  0  0
    0.5137   -0.6677   -0.4513 C   0  0  0  0  0  0  0  0  0  0  0  0
    0.8382   -1.8075   -1.1487 C   0  0  0  0  0  0  0  0  0  0  0  0
    1.8454   -2.6291   -0.6952 C   0  0  0  0  0  0  0  0  0  0  0  0
    2.7531   -2.1797    0.2112 C   0  0  0  0  0  0  0  0  0  0  0  0
    2.7070   -0.7729    0.7422 C   0  0  0  0  0  0  0  0  0  0  0  0
    2.9539   -0.7991    2.2537 C   0  0  0  0  0  0  0  0  0  0  0  0
    2.9104    0.6274    2.8025 Si  0  0  0  0  0  0  0  0  0  0  0  0
    3.2025    0.5943    4.6492 C   0  0  0  0  0  0  0  0  0  0  0  0
    1.2352    1.3801    2.4501 C   0  0  0  0  0  0  0  0  0  0  0  0
    3.9989    1.4664    2.1284 Si  0  0  0  0  0  0  0  0  0  0  0  0
    3.9459    3.2119    2.7972 C   0  0  0  0  0  0  0  0  0  0  0  0
    5.6744    0.7153    2.4825 C   0  0  0  0  0  0  0  0  0  0  0  0
    3.7593    1.4905    0.6176 C   0  0  0  0  0  0  0  0  0  0  0  0
    3.2857    1.0442   -3.5041 C   0  0  0  0  0  3  0  0  0  0  0  0
    3.5021    1.2289   -2.0109 C   0  0  0  0  0  0  0  0  0  0  0  0
    3.3478    2.4578   -1.4481 C   0  0  0  0  0  0  0  0  0  0  0  0
    3.0067    3.4921   -2.2154 C   0  0  0  0  0  0  0  0  0  0  0  0
    2.8495    4.7010   -1.6934 C   0  0  0  0  0  0  0  0  0  0  0  0
    3.0457    4.8930   -0.3095 C   0  0  0  0  0  0  0  0  0  0  0  0
    3.3861    3.8315    0.4577 C   0  0  0  0  0  0  0  0  0  0  0  0
    3.5420    2.6095   -0.1249 C   0  0  0  0  0  0  0  0  0  0  0  0
    3.9806   -0.2330   -0.9476 Si  0  0  0  0  0  0  0  0  0  0  0  0
    5.6306    0.1016   -0.1338 C   0  0  0  0  0  0  0  0  0  0  0  0
    2.6790   -0.4992    0.3684 C   0  0  0  0  0  0  0  0  0  0  0  0
    4.1107   -1.7635   -2.0142 C   0  0  0  0  0  0  0  0  0  0  0  0
    2.7910    0.9601    2.6188 Si  0  0  0  0  0  0  0  0  0  0  0  0
    4.0977   -0.3753    2.6980 C   0  0  0  0  0  0  0  0  0  0  0  0
    3.4610    2.4330    1.6813 C   0  0  0  0  0  0  0  0  0  0  0  0
    2.3284    1.4832    4.3535 C   0  0  0  0  0  0  0  0  0  0  0  0
   -0.4266   -0.1887   -0.6285 H   0  0  0  0  0  0  0  0  0  0  0  0
    0.3077   -2.0558   -2.0442 H   0  0  0  0  0  0  0  0  0  0  0  0
    1.9144   -3.6325   -1.0602 H   0  0  0  0  0  0  0  0  0  0  0  0
    3.5192   -2.8426    0.5555 H   0  0  0  0  0  0  0  0  0  0  0  0
    3.1721    1.5926    5.0331 H   0  0  0  0  0  0  0  0  0  0  0  0
    2.4416    0.0077    5.1202 H   0  0  0  0  0  0  0  0  0  0  0  0
    4.1610    0.1636    4.8510 H   0  0  0  0  0  0  0  0  0  0  0  0
    1.0680    1.3993    1.3934 H   0  0  0  0  0  0  0  0  0  0  0  0
    0.4744    0.7935    2.9211 H   0  0  0  0  0  0  0  0  0  0  0  0
    1.2049    2.3784    2.8341 H   0  0  0  0  0  0  0  0  0  0  0  0
    4.1132    3.1943    3.8539 H   0  0  0  0  0  0  0  0  0  0  0  0
    4.7068    3.7979    2.3253 H   0  0  0  0  0  0  0  0  0  0  0  0
    2.9874    3.6424    2.5949 H   0  0  0  0  0  0  0  0  0  0  0  0
    5.7053   -0.2837    2.1007 H   0  0  0  0  0  0  0  0  0  0  0  0
    6.4350    1.3014    2.0103 H   0  0  0  0  0  0  0  0  0  0  0  0
    5.8416    0.6986    3.5393 H   0  0  0  0  0  0  0  0  0  0  0  0
    2.8579    3.3458   -3.2648 H   0  0  0  0  0  0  0  0  0  0  0  0
    2.5755    5.5255   -2.3178 H   0  0  0  0  0  0  0  0  0  0  0  0
    2.9273    5.8629    0.1266 H   0  0  0  0  0  0  0  0  0  0  0  0
    3.5314    3.9505    1.5111 H   0  0  0  0  0  0  0  0  0  0  0  0
    5.5562    0.9774    0.4765 H   0  0  0  0  0  0  0  0  0  0  0  0
    5.9044   -0.7349    0.4747 H   0  0  0  0  0  0  0  0  0  0  0  0
    6.3754    0.2539   -0.8868 H   0  0  0  0  0  0  0  0  0  0  0  0
    1.7349   -0.6907   -0.0973 H   0  0  0  0  0  0  0  0  0  0  0  0
    2.9528   -1.3357    0.9768 H   0  0  0  0  0  0  0  0  0  0  0  0
    2.6046    0.3766    0.9787 H   0  0  0  0  0  0  0  0  0  0  0  0
    3.1666   -1.9550   -2.4799 H   0  0  0  0  0  0  0  0  0  0  0  0
    4.8554   -1.6113   -2.7672 H   0  0  0  0  0  0  0  0  0  0  0  0
    4.3845   -2.6000   -1.4058 H   0  0  0  0  0  0  0  0  0  0  0  0
    4.3624   -0.6746    1.7054 H   0  0  0  0  0  0  0  0  0  0  0  0
    4.9640    0.0027    3.1995 H   0  0  0  0  0  0  0  0  0  0  0  0
    3.7144   -1.2180    3.2344 H   0  0  0  0  0  0  0  0  0  0  0  0
    2.7134    3.1971    1.6360 H   0  0  0  0  0  0  0  0  0  0  0  0
    4.3273    2.8109    2.1829 H   0  0  0  0  0  0  0  0  0  0  0  0
    3.7257    2.1336    0.6888 H   0  0  0  0  0  0  0  0  0  0  0  0
    1.5807    2.2473    4.3081 H   0  0  0  0  0  0  0  0  0  0  0  0
    1.9450    0.6405    4.8899 H   0  0  0  0  0  0  0  0  0  0  0  0
    3.1947    1.8612    4.8550 H   0  0  0  0  0  0  0  0  0  0  0  0
  1  2  1  0  0  0  0
  2  3  1  0  0  0  0
  2  4  1  0  0  0  0
  2  5  1  0  0  0  0
  2  6  1  0  0  0  0
  2 11  1  0  0  0  0
  2 12  1  0  0  0  0
  2 19  1  0  0  0  0
  2 20  1  0  0  0  0
  2 21  1  0  0  0  0
  2 22  1  0  0  0  0
  2 27  1  0  0  0  0
  4  5  1  0  0  0  0
  4 12  2  0  0  0  0
  5  6  2  0  0  0  0
  5 32  1  0  0  0  0
  6  7  1  0  0  0  0
  6 11  1  0  0  0  0
  7  8  2  0  0  0  0
  7 36  1  0  0  0  0
  8  9  1  0  0  0  0
  8 37  1  0  0  0  0
  9 10  2  0  0  0  0
  9 38  1  0  0  0  0
 10 11  1  0  0  0  0
 10 39  1  0  0  0  0
 11 12  1  0  0  0  0
 12 13  1  0  0  0  0
 13 14  1  0  0  0  0
 13 15  1  0  0  0  0
 13 16  1  0  0  0  0
 14 40  1  0  0  0  0
 14 41  1  0  0  0  0
 14 42  1  0  0  0  0
 15 43  1  0  0  0  0
 15 44  1  0  0  0  0
 15 45  1  0  0  0  0
 16 17  1  0  0  0  0
 16 18  1  0  0  0  0
 16 19  1  0  0  0  0
 17 46  1  0  0  0  0
 17 47  1  0  0  0  0
 17 48  1  0  0  0  0
 18 49  1  0  0  0  0
 18 50  1  0  0  0  0
 18 51  1  0  0  0  0
 19 20  1  0  0  0  0
 19 27  2  0  0  0  0
 20 21  1  0  0  0  0
 21 22  2  0  0  0  0
 21 28  1  0  0  0  0
 22 23  1  0  0  0  0
 22 27  1  0  0  0  0
 23 24  2  0  0  0  0
 23 52  1  0  0  0  0
 24 25  1  0  0  0  0
 24 53  1  0  0  0  0
 25 26  2  0  0  0  0
 25 54  1  0  0  0  0
 26 27  1  0  0  0  0
 26 55  1  0  0  0  0
 28 29  1  0  0  0  0
 28 30  1  0  0  0  0
 28 31  1  0  0  0  0
 29 56  1  0  0  0  0
 29 57  1  0  0  0  0
 29 58  1  0  0  0  0
 30 59  1  0  0  0  0
 30 60  1  0  0  0  0
 30 61  1  0  0  0  0
 31 62  1  0  0  0  0
 31 63  1  0  0  0  0
 31 64  1  0  0  0  0
 32 33  1  0  0  0  0
 32 34  1  0  0  0  0
 32 35  1  0  0  0  0
 33 65  1  0  0  0  0
 33 66  1  0  0  0  0
 33 67  1  0  0  0  0
 34 68  1  0  0  0  0
 34 69  1  0  0  0  0
 34 70  1  0  0  0  0
 35 71  1  0  0  0  0
 35 72  1  0  0  0  0
 35 73  1  0  0  0  0
M  END
$$$$
