
 OpenBabel09252518203D

 32 34  0  0  0  0  0  0  0  0999 V2000
    0.9267    0.0673   -0.0103 C   0  0  0  0  0  0  0  0  0  0  0  0
    0.4201   -0.6489   -1.2516 C   0  0  0  0  0  0  0  0  0  0  0  0
    0.9267   -2.0820   -1.2520 C   0  0  0  0  0  0  0  0  0  0  0  0
    0.0427   -3.1160   -1.2523 C   0  0  0  0  0  0  0  0  0  0  0  0
   -1.0999   -0.6489   -1.2516 C   0  0  0  0  0  0  0  0  0  0  0  0
   -1.5899    0.7370   -1.2512 N   0  0  0  0  0  0  0  0  0  0  0  0
   -1.2829    1.5193   -0.2978 N   0  0  0  0  0  0  0  0  0  0  0  0
   -0.5523    1.1034    0.6553 N   0  0  0  0  0  2  0  0  0  0  0  0
   -1.6066   -1.3651   -2.4929 C   0  0  0  0  0  0  0  0  0  0  0  0
   -1.4418   -2.6610   -2.6992 C   0  0  0  0  0  0  0  0  0  0  0  0
   -1.9029   -2.9134   -4.0891 C   0  0  0  0  0  0  0  0  0  0  0  0
   -2.2974   -1.7415   -4.5581 C   0  0  0  0  0  0  0  0  0  0  0  0
   -2.8634   -1.4881   -5.9458 C   0  0  0  0  0  0  0  0  0  0  0  0
   -2.1154   -0.8123   -3.6059 Fe  0  0  0  0  0  0  0  0  0  0  0  0
   -3.1302   -2.1602   -2.3894 C   0  0  0  0  0  0  0  0  0  0  0  0
   -3.7244   -2.9496   -1.6770 O   0  0  0  0  0  0  0  0  0  0  0  0
   -2.9509   -1.6397   -5.3216 C   0  0  0  0  0  0  0  0  0  0  0  0
   -3.4402   -2.1243   -6.3264 O   0  0  0  0  0  0  0  0  0  0  0  0
   -0.7484   -1.3587   -2.1365 C   0  0  0  0  0  0  0  0  0  0  0  0
    0.0522   -1.6786   -1.2760 O   0  0  0  0  0  0  0  0  0  0  0  0
    0.5701   -0.4374    0.8632 H   0  0  0  0  0  0  0  0  0  0  0  0
    0.5701    1.0761   -0.0100 H   0  0  0  0  0  0  0  0  0  0  0  0
    1.9967    0.0673   -0.0103 H   0  0  0  0  0  0  0  0  0  0  0  0
    0.7767   -0.1443   -2.1251 H   0  0  0  0  0  0  0  0  0  0  0  0
    1.9787   -2.2775   -1.2520 H   0  0  0  0  0  0  0  0  0  0  0  0
    0.3993   -4.1248   -1.2526 H   0  0  0  0  0  0  0  0  0  0  0  0
   -1.0093   -2.9205   -1.2522 H   0  0  0  0  0  0  0  0  0  0  0  0
   -1.4566   -1.1536   -0.3781 H   0  0  0  0  0  0  0  0  0  0  0  0
   -1.6229    2.4810   -0.2975 H   0  0  0  0  0  0  0  0  0  0  0  0
   -3.8528   -1.0898   -5.8603 H   0  0  0  0  0  0  0  0  0  0  0  0
   -2.2406   -0.7882   -6.4627 H   0  0  0  0  0  0  0  0  0  0  0  0
   -2.8952   -2.4080   -6.4915 H   0  0  0  0  0  0  0  0  0  0  0  0
  1  2  1  0  0  0  0
  1 21  1  0  0  0  0
  1 22  1  0  0  0  0
  1 23  1  0  0  0  0
  2  3  1  0  0  0  0
  2  5  1  0  0  0  0
  2 24  1  0  0  0  0
  3  4  2  0  0  0  0
  3 25  1  0  0  0  0
  4 26  1  0  0  0  0
  4 27  1  0  0  0  0
  5  6  1  0  0  0  0
  5  9  1  0  0  0  0
  5 28  1  0  0  0  0
  6  7  2  0  0  0  0
  7  8  2  0  0  0  0
  7 29  1  0  0  0  0
  9 10  2  0  0  0  0
  9 14  1  0  0  0  0
 10 11  1  0  0  0  0
 10 14  1  0  0  0  0
 11 12  2  0  0  0  0
 11 14  1  0  0  0  0
 12 13  1  0  0  0  0
 12 14  1  0  0  0  0
 13 30  1  0  0  0  0
 13 31  1  0  0  0  0
 13 32  1  0  0  0  0
 14 15  1  0  0  0  0
 14 17  1  0  0  0  0
 14 19  1  0  0  0  0
 15 16  3  0  0  0  0
 17 18  3  0  0  0  0
 19 20  3  0  0  0  0
M  END
$$$$
