
     RDKit          3D

 28 28  0  0  0  0  0  0  0  0999 V2000
   -0.6833    0.1901    0.3531 C   0  0  0  0  0  0  0  0  0  0  0  0
   -2.0104   -0.4397    0.2133 C   0  0  0  0  0  0  0  0  0  0  0  0
   -2.9847   -0.2750    1.1506 C   0  0  0  0  0  0  0  0  0  0  0  0
   -4.2620   -0.8988    1.0217 C   0  0  0  0  0  0  0  0  0  0  0  0
   -5.2956   -1.4136    0.9048 N   0  0  0  0  0  0  0  0  0  0  0  0
   -2.7969    0.5133    2.3253 C   0  0  0  0  0  0  0  0  0  0  0  0
   -2.6315    1.1613    3.2739 N   0  0  0  0  0  0  0  0  0  0  0  0
   -2.2564   -1.2712   -1.0458 C   0  0  0  0  0  0  0  0  0  0  0  0
   -1.7480   -2.7016   -0.9079 C   0  0  0  0  0  0  0  0  0  0  0  0
    0.3559    0.0871   -0.4940 C   0  0  0  0  0  0  0  0  0  0  0  0
    1.6529    0.7445   -0.2674 C   0  0  0  0  0  0  0  0  0  0  0  0
    2.8290    0.0403   -0.5662 C   0  0  0  0  0  0  0  0  0  0  0  0
    4.0782    0.6401   -0.3903 C   0  0  0  0  0  0  0  0  0  0  0  0
    4.1513    1.9474    0.0734 C   0  0  0  0  0  0  0  0  0  0  0  0
    5.3490    2.5228    0.2399 F   0  0  0  0  0  0  0  0  0  0  0  0
    2.9990    2.6682    0.3606 C   0  0  0  0  0  0  0  0  0  0  0  0
    1.7490    2.0693    0.1853 C   0  0  0  0  0  0  0  0  0  0  0  0
   -0.5221    0.7910    1.2494 H   0  0  0  0  0  0  0  0  0  0  0  0
   -1.8040   -0.7920   -1.9221 H   0  0  0  0  0  0  0  0  0  0  0  0
   -3.3236   -1.3079   -1.2943 H   0  0  0  0  0  0  0  0  0  0  0  0
   -1.9498   -3.2612   -1.8270 H   0  0  0  0  0  0  0  0  0  0  0  0
   -0.6694   -2.7351   -0.7260 H   0  0  0  0  0  0  0  0  0  0  0  0
   -2.2472   -3.2204   -0.0828 H   0  0  0  0  0  0  0  0  0  0  0  0
    0.3112   -0.5153   -1.3963 H   0  0  0  0  0  0  0  0  0  0  0  0
    2.7832   -0.9842   -0.9294 H   0  0  0  0  0  0  0  0  0  0  0  0
    4.9912    0.0971   -0.6125 H   0  0  0  0  0  0  0  0  0  0  0  0
    3.0791    3.6913    0.7139 H   0  0  0  0  0  0  0  0  0  0  0  0
    0.8557    2.6523    0.3968 H   0  0  0  0  0  0  0  0  0  0  0  0
  1  2  1  0
  2  3  2  0
  3  4  1  0
  4  5  3  0
  3  6  1  0
  6  7  3  0
  2  8  1  0
  8  9  1  0
  1 10  2  0
 10 11  1  0
 11 12  2  0
 12 13  1  0
 13 14  2  0
 14 15  1  0
 14 16  1  0
 16 17  2  0
 17 11  1  0
  1 18  1  0
  8 19  1  0
  8 20  1  0
  9 21  1  0
  9 22  1  0
  9 23  1  0
 10 24  1  0
 12 25  1  0
 13 26  1  0
 16 27  1  0
 17 28  1  0
M  END
