
  --CCDC--092525    3D                              

 42 41  0  0  0  0  0  0  0  0999 V2000
    0.0516    0.0853    0.0854 C      0
    1.9543    0.0097   -0.6468 Pt     0
    1.5690   -1.7234   -1.6515 C      0
    1.3660    1.0253   -2.3154 C      0
    2.3396    1.7429    0.3579 N      0
    1.4216    2.3152    0.9951 N      3
    0.5753    2.7088    1.6551 N      5
    4.2235    0.0665   -1.4630 P      0
    4.6365   -1.4871   -2.2931 C      0
    5.3984    0.3652   -0.1205 C      0
    4.3949    1.4089   -2.6632 C      0
    2.5908   -1.3209    1.2626 P      0
    1.1135   -2.0846    1.9739 C      0
    3.3508   -0.2844    2.5362 C      0
    3.7371   -2.6428    0.8024 C      0
   -0.4952    0.8863   -0.4078 H      0
   -0.4470   -0.8633   -0.1025 H      0
    0.0822    0.2732    1.1565 H      0
    0.6122   -2.1266   -1.3260 H      0
    2.3560   -2.4457   -1.4473 H      0
    1.5323   -1.5215   -2.7199 H      0
    0.2891    0.9295   -2.4370 H      0
    1.8672    0.6112   -3.1878 H      0
    1.6271    2.0764   -2.2114 H      0
    4.1479   -1.5459   -3.2635 H      0
    4.3187   -2.3435   -1.7036 H      0
    5.7102   -1.5655   -2.4501 H      0
    5.4241   -0.4730    0.5717 H      0
    5.1231    1.2563    0.4397 H      0
    6.4026    0.5101   -0.5134 H      0
    3.7248    1.2607   -3.5073 H      0
    5.4131    1.4576   -3.0437 H      0
    4.1580    2.3674   -2.2061 H      0
    1.3717   -2.6902    2.8400 H      0
    0.6223   -2.7265    1.2456 H      0
    0.4017   -1.3256    2.2915 H      0
    2.8691    0.6903    2.5766 H      0
    4.4085   -0.1299    2.3385 H      0
    3.2557   -0.7485    3.5156 H      0
    4.5966   -2.2478    0.2663 H      0
    3.2474   -3.3741    0.1632 H      0
    4.1004   -3.1606    1.6876 H      0
  1  2  1
  2  3  1
  2  4  1
  2  5  1
  5  6  2
  6  7  2
  2  8  1
  8  9  1
  8 10  1
  8 11  1
  2 12  1
 12 13  1
 12 14  1
 12 15  1
  1 16  1
  1 17  1
  1 18  1
  3 19  1
  3 20  1
  3 21  1
  4 22  1
  4 23  1
  4 24  1
  9 25  1
  9 26  1
  9 27  1
 10 28  1
 10 29  1
 10 30  1
 11 31  1
 11 32  1
 11 33  1
 13 34  1
 13 35  1
 13 36  1
 14 37  1
 14 38  1
 14 39  1
 15 40  1
 15 41  1
 15 42  1
M  CHG  2   6   1   7  -1
M  END
$$$$
