
 OpenBabel09252518283D

 42 41  0  0  0  0  0  0  0  0999 V2000
    0.9688   -0.0105   -0.0944 C   0  0  0  0  0  0  0  0  0  0  0  0
    0.2621   -1.9019   -0.7407 Pt  0  0  0  0  0  0  0  0  0  0  0  0
    1.9931   -2.8237    0.0645 C   0  0  0  0  0  0  0  0  0  0  0  0
   -0.7372   -2.1611    1.1109 C   0  0  0  0  0  0  0  0  0  0  0  0
   -0.4279   -3.7486   -1.3717 N   0  0  0  0  0  0  0  0  0  0  0  0
    0.2590   -4.7942   -1.1474 N   0  3  0  0  0  0  0  0  0  0  0  0
    0.9458   -5.8397   -0.9231 N   0  5  0  0  0  0  0  0  0  0  0  0
   -1.7219   -0.8452   -1.6636 P   0  0  0  0  0  4  0  0  0  0  0  0
   -1.3153    0.8586   -2.1933 C   0  0  0  0  0  0  0  0  0  0  0  0
   -2.3114   -1.8075   -3.1042 C   0  0  0  0  0  0  0  0  0  0  0  0
   -3.0333   -0.7910   -0.3884 C   0  0  0  0  0  0  0  0  0  0  0  0
    1.4076   -1.6047   -2.8630 P   0  0  0  0  0  4  0  0  0  0  0  0
    0.7628   -0.1107   -3.7003 C   0  0  0  0  0  0  0  0  0  0  0  0
    3.2028   -1.4101   -2.5653 C   0  0  0  0  0  0  0  0  0  0  0  0
    1.1201   -3.0694   -3.9218 C   0  0  0  0  0  0  0  0  0  0  0  0
    0.6121    0.1844    0.8954 H   0  0  0  0  0  0  0  0  0  0  0  0
    0.6121    0.7493   -0.7581 H   0  0  0  0  0  0  0  0  0  0  0  0
    2.0388   -0.0105   -0.0944 H   0  0  0  0  0  0  0  0  0  0  0  0
    2.3378   -2.2611    0.9068 H   0  0  0  0  0  0  0  0  0  0  0  0
    1.7553   -3.8199    0.3742 H   0  0  0  0  0  0  0  0  0  0  0  0
    2.7599   -2.8554   -0.6811 H   0  0  0  0  0  0  0  0  0  0  0  0
   -1.7868   -2.2749    0.9368 H   0  0  0  0  0  0  0  0  0  0  0  0
   -0.3602   -3.0347    1.6005 H   0  0  0  0  0  0  0  0  0  0  0  0
   -0.5691   -1.3047    1.7299 H   0  0  0  0  0  0  0  0  0  0  0  0
   -0.5485    0.8269   -2.9389 H   0  0  0  0  0  0  0  0  0  0  0  0
   -2.1889    1.3239   -2.5997 H   0  0  0  0  0  0  0  0  0  0  0  0
   -0.9706    1.4213   -1.3509 H   0  0  0  0  0  0  0  0  0  0  0  0
   -2.5492   -2.8037   -2.7946 H   0  0  0  0  0  0  0  0  0  0  0  0
   -3.1851   -1.3422   -3.5106 H   0  0  0  0  0  0  0  0  0  0  0  0
   -1.5446   -1.8392   -3.8499 H   0  0  0  0  0  0  0  0  0  0  0  0
   -3.2711   -1.7872   -0.0787 H   0  0  0  0  0  0  0  0  0  0  0  0
   -2.6887   -0.2283    0.4539 H   0  0  0  0  0  0  0  0  0  0  0  0
   -3.9070   -0.3257   -0.7948 H   0  0  0  0  0  0  0  0  0  0  0  0
    0.9309    0.7457   -3.0813 H   0  0  0  0  0  0  0  0  0  0  0  0
    1.2672    0.0202   -4.6349 H   0  0  0  0  0  0  0  0  0  0  0  0
   -0.2868   -0.2244   -3.8744 H   0  0  0  0  0  0  0  0  0  0  0  0
    3.5798   -2.2837   -2.0758 H   0  0  0  0  0  0  0  0  0  0  0  0
    3.7072   -1.2793   -3.4999 H   0  0  0  0  0  0  0  0  0  0  0  0
    3.3709   -0.5537   -1.9463 H   0  0  0  0  0  0  0  0  0  0  0  0
    1.4971   -3.9429   -3.4322 H   0  0  0  0  0  0  0  0  0  0  0  0
    0.0705   -3.1831   -4.0958 H   0  0  0  0  0  0  0  0  0  0  0  0
    1.6245   -2.9385   -4.8563 H   0  0  0  0  0  0  0  0  0  0  0  0
  1  2  1  0  0  0  0
  1 16  1  0  0  0  0
  1 17  1  0  0  0  0
  1 18  1  0  0  0  0
  2  3  1  0  0  0  0
  2  4  1  0  0  0  0
  2  5  1  0  0  0  0
  2  8  1  0  0  0  0
  2 12  1  0  0  0  0
  3 19  1  0  0  0  0
  3 20  1  0  0  0  0
  3 21  1  0  0  0  0
  4 22  1  0  0  0  0
  4 23  1  0  0  0  0
  4 24  1  0  0  0  0
  5  6  2  0  0  0  0
  6  7  2  0  0  0  0
  8  9  1  0  0  0  0
  8 10  1  0  0  0  0
  8 11  1  0  0  0  0
  9 25  1  0  0  0  0
  9 26  1  0  0  0  0
  9 27  1  0  0  0  0
 10 28  1  0  0  0  0
 10 29  1  0  0  0  0
 10 30  1  0  0  0  0
 11 31  1  0  0  0  0
 11 32  1  0  0  0  0
 11 33  1  0  0  0  0
 12 13  1  0  0  0  0
 12 14  1  0  0  0  0
 12 15  1  0  0  0  0
 13 34  1  0  0  0  0
 13 35  1  0  0  0  0
 13 36  1  0  0  0  0
 14 37  1  0  0  0  0
 14 38  1  0  0  0  0
 14 39  1  0  0  0  0
 15 40  1  0  0  0  0
 15 41  1  0  0  0  0
 15 42  1  0  0  0  0
M  CHG  2   6   1   7  -1
M  END
$$$$
