
  --CCDC--092525    3D                              

 75 87  0  0  0  0  0  0  0  0999 V2000
    3.4350    2.3926    1.6895 Cl     0
    1.2641    2.8246    0.0814 Zr     0
    1.3978    0.1385    0.6015 Cl     0
    1.8256    4.1989   -1.7705 C      0
    3.1799    3.5966   -1.1237 C      0
    2.9586    2.0299   -1.3666 C      0
    3.8740    1.0219   -1.1152 C      0
    3.5963   -0.2633   -1.5829 C      0
    2.3802   -0.5710   -2.1746 C      0
    1.3756    0.3893   -2.3026 C      0
    1.6724    1.6972   -1.9600 C      0
    0.8266    3.0101   -2.2499 C      0
   -1.0082    3.0938   -2.6202 Si     0
   -1.5802    4.8732   -2.8287 C      0
   -1.3677    2.2054   -4.2369 C      0
   -1.9747    1.9867   -0.7915 Si     0
   -3.8149    2.3378   -0.6407 C      0
   -1.7490    0.1207   -0.8065 C      0
   -1.0483    2.7946    0.6165 C      0
   -0.4932    4.3173    0.6500 C      0
    0.7461    4.5150    1.6729 C      0
    0.7554    3.0806    2.3743 C      0
    1.5613    2.6861    3.4282 C      0
    1.3754    1.4172    3.9743 C      0
    0.4504    0.5303    3.4492 C      0
   -0.3081    0.8524    2.3219 C      0
   -0.2033    2.1291    1.7949 C      0
    1.7767    6.0376    2.0074 Si     0
    0.9153    7.0514    3.3275 C      0
    1.8667    7.1389    0.4936 C      0
    3.4524    5.5940    2.7189 C      0
    4.8135    4.4385   -0.7047 Si     0
    5.9209    3.6452    0.5848 C      0
    4.7526    6.2882   -0.4147 C      0
    5.8188    4.2917   -2.2796 C      0
    1.4359    5.1825   -1.4688 H      0
    4.8082    1.2363   -0.6069 H      0
    4.3422   -1.0427   -1.4670 H      0
    2.1970   -1.5830   -2.5204 H      0
    0.4037    0.1272   -2.7073 H      0
   -1.2285    5.2795   -3.7747 H      0
   -1.2075    5.5100   -2.0314 H      0
   -2.6668    4.9288   -2.8226 H      0
   -1.0329    1.1711   -4.1914 H      0
   -0.8565    2.6908   -5.0657 H      0
   -2.4348    2.2072   -4.4490 H      0
   -4.3563    1.9298   -1.4917 H      0
   -4.0013    3.4090   -0.6024 H      0
   -4.2199    1.8906    0.2647 H      0
   -2.3063   -0.3256   -1.6275 H      0
   -2.1079   -0.3177    0.1223 H      0
   -0.7042   -0.1490   -0.9262 H      0
   -0.5726    4.9585   -0.2388 H      0
    2.2988    3.3642    3.8453 H      0
    1.9709    1.1165    4.8301 H      0
    0.3291   -0.4446    3.9098 H      0
   -0.9918    0.1294    1.8895 H      0
    0.8108    6.4786    4.2466 H      0
   -0.0782    7.3486    2.9985 H      0
    1.4817    7.9527    3.5524 H      0
    2.5411    7.9757    0.6628 H      0
    0.8838    7.5403    0.2557 H      0
    2.2165    6.5860   -0.3730 H      0
    4.0599    6.4852    2.8623 H      0
    3.9882    4.9188    2.0606 H      0
    3.3409    5.1022    3.6830 H      0
    5.6852    3.9980    1.5854 H      0
    6.9632    3.8882    0.3892 H      0
    5.8196    2.5621    0.5686 H      0
    4.0462    6.7622   -1.0931 H      0
    5.7315    6.7311   -0.5860 H      0
    4.4595    6.5238    0.6021 H      0
    5.9753    3.2474   -2.5414 H      0
    6.7932    4.7609   -2.1603 H      0
    5.3086    4.7764   -3.1094 H      0
  1  2  1
  2  3  1
  2  4  1
  4  5  1
  2  5  1
  5  6  1
  2  6  1
  6  7  4
  7  8  4
  8  9  4
  9 10  4
 10 11  4
  2 11  1
  6 11  4
 11 12  1
  2 12  1
  4 12  1
 12 13  1
 13 14  1
 13 15  1
 13 16  1
 16 17  1
 16 18  1
 16 19  1
  2 19  1
 19 20  1
  2 20  1
 20 21  1
  2 21  1
 21 22  1
  2 22  1
 22 23  4
 23 24  4
 24 25  4
 25 26  4
 26 27  4
  2 27  1
 19 27  1
 22 27  4
 21 28  1
 28 29  1
 28 30  1
 28 31  1
  5 32  1
 32 33  1
 32 34  1
 32 35  1
  4 36  1
  7 37  1
  8 38  1
  9 39  1
 10 40  1
 14 41  1
 14 42  1
 14 43  1
 15 44  1
 15 45  1
 15 46  1
 17 47  1
 17 48  1
 17 49  1
 18 50  1
 18 51  1
 18 52  1
 20 53  1
 23 54  1
 24 55  1
 25 56  1
 26 57  1
 29 58  1
 29 59  1
 29 60  1
 30 61  1
 30 62  1
 30 63  1
 31 64  1
 31 65  1
 31 66  1
 33 67  1
 33 68  1
 33 69  1
 34 70  1
 34 71  1
 34 72  1
 35 73  1
 35 74  1
 35 75  1
M  END
$$$$
