
 OpenBabel09252519333D

 71 77  0  0  0  0  0  0  0  0999 V2000
    1.0044    0.0767   -0.0640 C   0  0  0  0  0  0  0  0  0  0  0  0
    0.4011    1.5154    0.8538 S   0  0  0  0  0  0  0  0  0  0  0  0
   -1.4089    1.5154    0.8538 C   0  0  0  0  0  0  0  0  0  0  0  0
    0.9112    1.4516    2.2953 O   0  0  0  0  0  0  0  0  0  0  0  0
    0.2783    3.3433    3.9939 U   0  3  0  0  0  0  0  0  0  0  0  0
   -2.0106    3.9958    5.0892 O   0  0  0  0  0  0  0  0  0  0  0  0
   -3.1209    3.1160    4.9916 C   0  0  0  0  0  0  0  0  0  0  0  0
   -4.2311    3.4325    5.5229 O   0  0  0  0  0  0  0  0  0  0  0  0
   -1.4090   -2.7935    5.2221 C   0  0  0  0  0  0  0  0  0  0  0  0
   -2.0091   -1.4760    4.9674 N   0  0  0  0  0  0  0  0  0  0  0  0
   -2.7246   -1.1476    3.6566 C   0  0  0  0  0  0  0  0  0  0  0  0
   -1.6930   -0.9264    2.5491 C   0  0  0  0  0  0  0  0  0  0  0  0
   -1.9002    0.4530    1.9226 N   0  0  0  0  0  4  0  0  0  0  0  0
   -1.0445    1.4865    2.6580 C   0  0  0  0  0  0  0  0  0  0  0  0
   -1.9420    2.6023    3.1993 C   0  0  0  0  0  0  0  0  0  0  0  0
   -1.1732    3.4357    4.2254 N   0  0  0  0  0  0  0  0  0  0  0  0
   -1.5246    3.0157    5.6531 C   0  0  0  0  0  0  0  0  0  0  0  0
   -1.4291    1.4964    5.7973 C   0  0  0  0  0  0  0  0  0  0  0  0
   -2.0518    1.0726    7.1297 N   0  0  0  0  0  0  0  0  0  0  0  0
   -2.0285   -0.4524    7.2488 C   0  0  0  0  0  0  0  0  0  0  0  0
   -2.8925   -1.0701    6.1487 C   0  0  0  0  0  0  0  0  0  0  0  0
   -1.0908    4.9525    1.0573 C   0  0  0  0  0  0  0  0  0  0  0  0
   -2.1784    5.0815    2.1112 C   0  0  0  0  0  0  0  0  0  0  0  0
   -3.2709    5.6662    1.8287 O   0  0  0  0  0  0  0  0  0  0  0  0
   -1.9739    4.5487    3.4115 O   0  0  0  0  0  0  0  0  0  0  0  0
   -1.4686    4.9115    4.0285 C   0  0  0  0  0  0  0  0  0  0  0  0
   -0.2950    5.4761    3.6848 C   0  0  0  0  0  0  0  0  0  0  0  0
   -0.1487    6.7083    3.4102 O   0  0  0  0  0  0  0  0  0  0  0  0
    0.6976    4.5795    3.6683 O   0  0  0  0  0  0  0  0  0  0  0  0
   -0.4526    5.4634    5.3487 O   0  0  0  0  0  0  0  0  0  0  0  0
   -0.3890    5.4538    6.8778 S   0  0  0  0  0  0  0  0  0  0  0  0
    1.3165    5.1620    7.4089 C   0  0  0  0  0  0  0  0  0  0  0  0
   -0.9546    7.0507    7.5152 C   0  0  0  0  0  0  0  0  0  0  0  0
    0.6477    0.1214   -1.0718 H   0  0  0  0  0  0  0  0  0  0  0  0
    0.6477   -0.8184    0.4013 H   0  0  0  0  0  0  0  0  0  0  0  0
    2.0744    0.0767   -0.0640 H   0  0  0  0  0  0  0  0  0  0  0  0
   -1.7656    0.6203    1.3191 H   0  0  0  0  0  0  0  0  0  0  0  0
   -1.7656    2.3659    1.3964 H   0  0  0  0  0  0  0  0  0  0  0  0
   -1.7656    1.5600   -0.1540 H   0  0  0  0  0  0  0  0  0  0  0  0
   -0.7950   -2.7426    6.0969 H   0  0  0  0  0  0  0  0  0  0  0  0
   -2.1842   -3.5156    5.3720 H   0  0  0  0  0  0  0  0  0  0  0  0
   -2.4710   -2.0797    5.6476 H   0  0  0  0  0  0  0  0  0  0  0  0
   -3.3647   -1.9619    3.3879 H   0  0  0  0  0  0  0  0  0  0  0  0
   -3.3078   -0.2594    3.7822 H   0  0  0  0  0  0  0  0  0  0  0  0
   -1.8114   -1.6791    1.7978 H   0  0  0  0  0  0  0  0  0  0  0  0
   -0.7081   -0.9852    2.9630 H   0  0  0  0  0  0  0  0  0  0  0  0
   -2.5524    0.2030    1.1793 H   0  0  0  0  0  0  0  0  0  0  0  0
   -0.3285    1.9028    1.9806 H   0  0  0  0  0  0  0  0  0  0  0  0
   -0.5345    1.0134    3.4710 H   0  0  0  0  0  0  0  0  0  0  0  0
   -2.7999    2.1683    3.6690 H   0  0  0  0  0  0  0  0  0  0  0  0
   -2.2523    3.2317    2.3915 H   0  0  0  0  0  0  0  0  0  0  0  0
   -0.4396    3.2258    4.9023 H   0  0  0  0  0  0  0  0  0  0  0  0
   -2.5259    3.3240    5.8704 H   0  0  0  0  0  0  0  0  0  0  0  0
   -0.8426    3.4786    6.3353 H   0  0  0  0  0  0  0  0  0  0  0  0
   -0.4017    1.1986    5.7719 H   0  0  0  0  0  0  0  0  0  0  0  0
   -1.9552    1.0275    4.9921 H   0  0  0  0  0  0  0  0  0  0  0  0
   -2.5919    1.1979    7.9859 H   0  0  0  0  0  0  0  0  0  0  0  0
   -2.4151   -0.7384    8.2047 H   0  0  0  0  0  0  0  0  0  0  0  0
   -1.0220   -0.8014    7.1484 H   0  0  0  0  0  0  0  0  0  0  0  0
   -3.6157   -0.3529    5.8208 H   0  0  0  0  0  0  0  0  0  0  0  0
   -3.3928   -1.9346    6.5324 H   0  0  0  0  0  0  0  0  0  0  0  0
   -0.7870    5.9272    0.7371 H   0  0  0  0  0  0  0  0  0  0  0  0
   -0.2511    4.4357    1.4728 H   0  0  0  0  0  0  0  0  0  0  0  0
   -2.2161    5.0678    3.2790 H   0  0  0  0  0  0  0  0  0  0  0  0
   -1.8382    5.3422    4.9356 H   0  0  0  0  0  0  0  0  0  0  0  0
    1.9460    5.9402    7.0306 H   0  0  0  0  0  0  0  0  0  0  0  0
    1.3610    5.1554    8.4780 H   0  0  0  0  0  0  0  0  0  0  0  0
    1.6509    4.2180    7.0321 H   0  0  0  0  0  0  0  0  0  0  0  0
   -0.3252    7.8289    7.1369 H   0  0  0  0  0  0  0  0  0  0  0  0
   -1.9628    7.2232    7.2012 H   0  0  0  0  0  0  0  0  0  0  0  0
   -0.9101    7.0440    8.5842 H   0  0  0  0  0  0  0  0  0  0  0  0
  1  2  1  0  0  0  0
  1 34  1  0  0  0  0
  1 35  1  0  0  0  0
  1 36  1  0  0  0  0
  2  3  1  0  0  0  0
  2  4  2  0  0  0  0
  3 37  1  0  0  0  0
  3 38  1  0  0  0  0
  3 39  1  0  0  0  0
  4  5  1  0  0  0  0
  5  6  1  0  0  0  0
  5 10  1  0  0  0  0
  5 13  1  0  0  0  0
  5 16  1  0  0  0  0
  5 19  1  0  0  0  0
  5 25  1  0  0  0  0
  5 29  1  0  0  0  0
  5 30  1  0  0  0  0
  6  7  1  0  0  0  0
  7  8  2  0  0  0  0
  7  9  1  0  0  0  0
  9 10  1  0  0  0  0
  9 40  1  0  0  0  0
  9 41  1  0  0  0  0
 10 11  1  0  0  0  0
 10 21  1  0  0  0  0
 10 42  1  0  0  0  0
 11 12  1  0  0  0  0
 11 43  1  0  0  0  0
 11 44  1  0  0  0  0
 12 13  1  0  0  0  0
 12 45  1  0  0  0  0
 12 46  1  0  0  0  0
 13 14  1  0  0  0  0
 13 47  1  0  0  0  0
 14 15  1  0  0  0  0
 14 48  1  0  0  0  0
 14 49  1  0  0  0  0
 15 16  1  0  0  0  0
 15 50  1  0  0  0  0
 15 51  1  0  0  0  0
 16 17  1  0  0  0  0
 16 26  1  0  0  0  0
 16 52  1  0  0  0  0
 17 18  1  0  0  0  0
 17 53  1  0  0  0  0
 17 54  1  0  0  0  0
 18 19  1  0  0  0  0
 18 55  1  0  0  0  0
 18 56  1  0  0  0  0
 19 20  1  0  0  0  0
 19 22  1  0  0  0  0
 19 57  1  0  0  0  0
 20 21  1  0  0  0  0
 20 58  1  0  0  0  0
 20 59  1  0  0  0  0
 21 60  1  0  0  0  0
 21 61  1  0  0  0  0
 22 23  1  0  0  0  0
 22 62  1  0  0  0  0
 22 63  1  0  0  0  0
 23 24  2  0  0  0  0
 23 25  1  0  0  0  0
 26 27  1  0  0  0  0
 26 64  1  0  0  0  0
 26 65  1  0  0  0  0
 27 28  2  0  0  0  0
 27 29  1  0  0  0  0
 30 31  2  0  0  0  0
 31 32  1  0  0  0  0
 31 33  1  0  0  0  0
 32 66  1  0  0  0  0
 32 67  1  0  0  0  0
 32 68  1  0  0  0  0
 33 69  1  0  0  0  0
 33 70  1  0  0  0  0
 33 71  1  0  0  0  0
M  CHG  1   5   1
M  END
$$$$
