
 OpenBabel09252515553D

 32 34  0  0  0  0  0  0  0  0999 V2000
    0.9831   -0.0830   -0.0531 C   0  0  0  0  0  0  0  0  0  0  0  0
    0.4764   -1.0647   -1.0972 C   0  0  0  0  0  0  0  0  0  0  0  0
    0.9831   -2.4597   -0.7690 C   0  0  0  0  0  0  0  0  0  0  0  0
    0.0991   -3.4662   -0.5322 C   0  0  0  0  0  0  0  0  0  0  0  0
   -1.0436   -1.0647   -1.0972 C   0  0  0  0  0  0  0  0  0  0  0  0
   -1.5336    0.2844   -1.4145 N   0  0  0  0  0  0  0  0  0  0  0  0
   -1.2265    1.2644   -0.6658 N   0  0  0  0  0  0  0  0  0  0  0  0
   -0.4959    1.0781    0.3572 N   0  0  0  0  0  2  0  0  0  0  0  0
   -1.5502   -2.0464   -2.1412 C   0  0  0  0  0  0  0  0  0  0  0  0
   -1.2852   -3.3405   -2.0781 C   0  0  0  0  0  0  0  0  0  0  0  0
   -1.7614   -3.9164   -3.3625 C   0  0  0  0  0  0  0  0  0  0  0  0
   -2.2634   -2.9037   -4.0492 C   0  0  0  0  0  0  0  0  0  0  0  0
   -2.8856   -2.9940   -5.4331 C   0  0  0  0  0  0  0  0  0  0  0  0
   -2.1326   -1.7824   -3.3220 Fe  0  0  0  0  0  0  0  0  0  0  0  0
   -1.2153   -1.7743   -5.1888 C   0  0  0  0  0  0  0  0  0  0  0  0
   -0.6781   -1.7696   -6.2820 O   0  0  0  0  0  0  0  0  0  0  0  0
   -2.9929   -0.0501   -2.5567 C   0  0  0  0  0  0  0  0  0  0  0  0
   -3.4966    0.9643   -2.1085 O   0  0  0  0  0  0  0  0  0  0  0  0
   -3.5549   -1.5216   -4.8172 C   0  0  0  0  0  0  0  0  0  0  0  0
   -4.3877   -1.3689   -5.6928 O   0  0  0  0  0  0  0  0  0  0  0  0
    0.6265   -0.3740    0.9128 H   0  0  0  0  0  0  0  0  0  0  0  0
    0.6265    0.8990   -0.2841 H   0  0  0  0  0  0  0  0  0  0  0  0
    2.0531   -0.0830   -0.0531 H   0  0  0  0  0  0  0  0  0  0  0  0
    0.8331   -0.7737   -2.0631 H   0  0  0  0  0  0  0  0  0  0  0  0
    2.0351   -2.6500   -0.7242 H   0  0  0  0  0  0  0  0  0  0  0  0
    0.4557   -4.4482   -0.3012 H   0  0  0  0  0  0  0  0  0  0  0  0
   -0.9529   -3.2759   -0.5770 H   0  0  0  0  0  0  0  0  0  0  0  0
   -1.4002   -1.3556   -0.1312 H   0  0  0  0  0  0  0  0  0  0  0  0
   -1.5665    2.2005   -0.8860 H   0  0  0  0  0  0  0  0  0  0  0  0
   -3.9017   -2.6615   -5.3897 H   0  0  0  0  0  0  0  0  0  0  0  0
   -2.3366   -2.3756   -6.1121 H   0  0  0  0  0  0  0  0  0  0  0  0
   -2.8565   -4.0086   -5.7717 H   0  0  0  0  0  0  0  0  0  0  0  0
  1  2  1  0  0  0  0
  1 21  1  0  0  0  0
  1 22  1  0  0  0  0
  1 23  1  0  0  0  0
  2  3  1  0  0  0  0
  2  5  1  0  0  0  0
  2 24  1  0  0  0  0
  3  4  2  0  0  0  0
  3 25  1  0  0  0  0
  4 26  1  0  0  0  0
  4 27  1  0  0  0  0
  5  6  1  0  0  0  0
  5  9  1  0  0  0  0
  5 28  1  0  0  0  0
  6  7  2  0  0  0  0
  7  8  2  0  0  0  0
  7 29  1  0  0  0  0
  9 10  2  0  0  0  0
  9 14  1  0  0  0  0
 10 11  1  0  0  0  0
 10 14  1  0  0  0  0
 11 12  2  0  0  0  0
 11 14  1  0  0  0  0
 12 13  1  0  0  0  0
 12 14  1  0  0  0  0
 13 30  1  0  0  0  0
 13 31  1  0  0  0  0
 13 32  1  0  0  0  0
 14 15  1  0  0  0  0
 14 17  1  0  0  0  0
 14 19  1  0  0  0  0
 15 16  3  0  0  0  0
 17 18  3  0  0  0  0
 19 20  3  0  0  0  0
M  END
$$$$
