
     RDKit          3D

 46 54  0  0  0  0  0  0  0  0999 V2000
    0.0083    2.6633    0.5102 Cl  0  0  0  0  0  0  0  0  0  0  0  0
   -0.4494    0.7387   -0.1141 Ir  0  0  0  0  0  9  0  0  0  0  0  0
   -0.1012    1.7099   -1.8285 C   0  0  0  0  0  0  0  0  0  0  0  0
    0.8188    0.9718   -1.4776 C   0  0  0  0  0  0  0  0  0  0  0  0
    2.0852    0.1648   -1.3013 C   0  0  0  0  0  0  0  0  0  0  0  0
    3.1417   -0.1399   -2.1695 C   0  0  0  0  0  0  0  0  0  0  0  0
    4.2561   -0.7121   -1.7416 C   0  0  0  0  0  0  0  0  0  0  0  0
    4.3338   -0.9911   -0.4098 C   0  0  0  0  0  0  0  0  0  0  0  0
    3.2733   -0.6825    0.4079 C   0  0  0  0  0  0  0  0  0  0  0  0
    3.6386   -0.9299    1.7459 C   0  0  0  0  0  0  0  0  0  0  0  0
    2.7159   -0.5518    2.6914 C   0  0  0  0  0  0  0  0  0  0  0  0
    1.5748    0.0004    2.1979 C   0  0  0  0  0  0  0  0  0  0  0  0
    1.0911    0.2927    0.8776 C   0  0  0  0  0  0  0  0  0  0  0  0
    2.0610   -0.0900    0.0111 C   0  0  0  0  0  0  0  0  0  0  0  0
   -1.2569   -0.4358    0.6680 C   0  0  0  0  0  0  0  0  0  0  0  0
   -1.8196   -1.4622    1.3441 C   0  0  0  0  0  0  0  0  0  0  0  0
   -1.6094    0.9273    1.0373 C   0  0  0  0  0  0  0  0  0  0  0  0
   -2.0928    1.1215    2.3289 C   0  0  0  0  0  0  0  0  0  0  0  0
   -2.1263    1.2505   -0.1113 C   0  0  0  0  0  0  0  0  0  0  0  0
   -3.0150    2.2931   -0.3980 C   0  0  0  0  0  0  0  0  0  0  0  0
   -1.9166    0.1099   -0.9306 C   0  0  0  0  0  0  0  0  0  0  0  0
   -2.5239   -0.2670   -2.1185 C   0  0  0  0  0  0  0  0  0  0  0  0
   -0.8963   -0.7404   -0.5816 C   0  0  0  0  0  0  0  0  0  0  0  0
   -0.3969   -1.9722   -1.1029 C   0  0  0  0  0  0  0  0  0  0  0  0
   -0.2074    2.3920   -2.7595 H   0  0  0  0  0  0  0  0  0  0  0  0
    2.9956    0.1097   -3.2041 H   0  0  0  0  0  0  0  0  0  0  0  0
    5.0166   -0.9152   -2.4726 H   0  0  0  0  0  0  0  0  0  0  0  0
    5.2415   -1.4446   -0.0963 H   0  0  0  0  0  0  0  0  0  0  0  0
    4.5441   -1.3743    2.0958 H   0  0  0  0  0  0  0  0  0  0  0  0
    2.7917   -0.6386    3.7356 H   0  0  0  0  0  0  0  0  0  0  0  0
    0.8354    0.3278    2.9677 H   0  0  0  0  0  0  0  0  0  0  0  0
   -2.8599   -1.7419    1.0026 H   0  0  0  0  0  0  0  0  0  0  0  0
   -1.2908   -2.4366    1.4412 H   0  0  0  0  0  0  0  0  0  0  0  0
   -1.9812   -1.1739    2.4276 H   0  0  0  0  0  0  0  0  0  0  0  0
   -2.4616    2.1842    2.4665 H   0  0  0  0  0  0  0  0  0  0  0  0
   -1.5567    0.8924    3.2478 H   0  0  0  0  0  0  0  0  0  0  0  0
   -3.0678    0.5465    2.3965 H   0  0  0  0  0  0  0  0  0  0  0  0
   -2.5997    3.2865   -0.0478 H   0  0  0  0  0  0  0  0  0  0  0  0
   -3.9624    2.1994    0.1698 H   0  0  0  0  0  0  0  0  0  0  0  0
   -3.2103    2.4780   -1.4831 H   0  0  0  0  0  0  0  0  0  0  0  0
   -1.9142   -0.6843   -2.9759 H   0  0  0  0  0  0  0  0  0  0  0  0
   -3.0166    0.6284   -2.6182 H   0  0  0  0  0  0  0  0  0  0  0  0
   -3.3590   -0.9694   -1.9566 H   0  0  0  0  0  0  0  0  0  0  0  0
    0.6687   -1.9799   -1.4831 H   0  0  0  0  0  0  0  0  0  0  0  0
   -0.9779   -2.1848   -2.0202 H   0  0  0  0  0  0  0  0  0  0  0  0
   -0.4222   -2.7702   -0.3687 H   0  0  0  0  0  0  0  0  0  0  0  0
  1  2  1  0
  2  3  1  0
  3  4  2  0
  4  5  1  0
  5  6  2  0
  6  7  1  0
  7  8  2  0
  8  9  1  0
  9 10  2  0
 10 11  1  0
 11 12  2  0
 12 13  1  0
 13 14  2  0
  2 15  1  0
 15 16  1  0
 15 17  1  0
 17 18  1  0
 17 19  1  0
 19 20  1  0
 19 21  1  0
 21 22  1  0
 21 23  1  0
 23 24  1  0
  4  2  1  0
 14  5  1  0
 23 15  1  0
 13  2  1  0
 17  2  1  0
 19  2  1  0
 21  2  1  0
 23  2  1  0
 14  9  1  0
  3 25  1  0
  6 26  1  0
  7 27  1  0
  8 28  1  0
 10 29  1  0
 11 30  1  0
 12 31  1  0
 16 32  1  0
 16 33  1  0
 16 34  1  0
 18 35  1  0
 18 36  1  0
 18 37  1  0
 20 38  1  0
 20 39  1  0
 20 40  1  0
 22 41  1  0
 22 42  1  0
 22 43  1  0
 24 44  1  0
 24 45  1  0
 24 46  1  0
M  END
