
  --CCDC--092525    3D                              

 87103  0  0  0  0  0  0  0  0999 V2000
    8.4770    0.7418    3.9618 H      0
    7.5925    0.8830    3.3495 C      0
    7.0538   -0.1615    2.6429 C      0
    7.5305   -1.1354    2.6837 H      0
    5.9199    0.0108    1.8652 C      0
    5.6253   -0.8540    1.2977 H      0
    5.2285    1.2331    1.7870 C      0
    3.7075    1.6906    0.8356 P      3
    2.8765    2.9225    1.9505 C      0
    2.0139    3.9982    1.6634 C      0
    1.6975    4.2180    0.6546 H      0
    1.5155    4.8510    2.6350 C      0
    0.8783    5.6788    2.3421 H      0
    1.8146    4.6649    3.9599 C      0
    1.4336    5.3418    4.7175 H      0
    2.5965    3.5929    4.3020 C      0
    2.8269    3.4035    5.3451 H      0
    3.0863    2.7436    3.3250 C      0
    3.6444    1.8774    3.6611 H      0
    4.0230    1.7501   -1.7339 Ru     0
    2.3216    1.5460   -1.2757 H      0
    2.1071    0.0766   -0.3174 Ru     0
    4.4444   -0.4208   -0.7279 Cl     0
    0.3290    0.6607    0.3392 C      0
    0.3737    2.0795   -0.1687 C      0
   -0.2909    2.7090    0.4190 H      0
    0.0322    2.1186   -1.1996 H      0
    1.3590    2.4942   -0.0985 H      0
    1.1600   -0.2544    1.3788 C      0
    2.0955   -0.0589    2.6047 C      0
    1.7400    0.7767    3.1963 H      0
    3.1454    0.0419    2.3952 H      0
    2.0060   -0.9341    3.2448 H      0
    1.8698   -1.5483    0.7424 C      0
    3.2967   -2.1675    0.9854 C      0
    3.9199   -1.4966    1.5497 H      0
    3.8332   -2.5501    0.1286 H      0
    3.1667   -3.0320    1.6333 H      0
    1.7339   -1.8131   -0.8258 C      0
    2.6231   -2.3967   -1.9506 C      0
    1.9897   -2.7918   -2.7418 H      0
    3.2264   -3.2254   -1.5885 H      0
    3.2772   -1.6791   -2.4021 H      0
    0.7772   -0.8767   -1.5389 C      0
    0.5173   -0.6309   -3.0114 C      0
   -0.3715   -1.1668   -3.3381 H      0
    1.3510   -0.9579   -3.6286 H      0
    0.3567    0.4276   -3.2026 H      0
    0.0493   -0.5685   -0.4384 C      0
   -0.0129   -2.1519   -0.1095 C      0
    0.3919   -2.8965   -0.7981 H      0
   -1.0706   -2.3463   -0.2760 H      0
    0.0502   -2.4732    0.9340 H      0
    3.5014    3.0259   -3.2180 C      0
    2.1591    2.3045   -2.8906 C      0
    1.6516    2.3168   -3.8527 H      0
    1.4390    2.8519   -2.2970 H      0
    2.1834    1.2452   -2.7072 H      0
    4.0428    1.7952   -3.8655 C      0
    3.4001    0.4394   -4.3308 C      0
    2.4571    0.6268   -4.8402 H      0
    3.1897   -0.2017   -3.4913 H      0
    4.0491   -0.0886   -5.0264 H      0
    5.2279    1.1505   -3.3154 C      0
    5.7206   -0.3308   -3.1242 C      0
    4.9253   -1.0658   -3.1296 H      0
    6.3506   -0.5301   -2.2700 H      0
    6.3344   -0.5799   -3.9874 H      0
    6.0114    1.8775   -2.3057 C      0
    6.8776    1.4978   -1.0678 C      0
    6.2489    1.3783   -0.2096 H      0
    7.5967    2.2857   -0.8549 H      0
    7.4531    0.5874   -1.2100 H      0
    5.5745    3.1797   -1.7298 C      0
    5.6952    3.8899   -0.3212 C      0
    6.7376    3.8481   -0.0131 H      0
    5.1428    3.4709    0.4975 H      0
    5.4652    4.9519   -0.3982 H      0
    4.3193    3.7082   -2.1480 C      0
    3.3742    3.6722   -0.9478 C      0
    3.4077    2.7136   -0.4948 H      0
    3.6014    4.4354   -0.2093 H      0
    2.3585    3.9556   -1.1881 H      0
    5.8579    2.2763    2.4790 C      0
    5.4268    3.2700    2.4244 H      0
    6.9948    2.1125    3.2514 C      0
    7.4144    2.9602    3.7828 H      0
  1  2  1
  2  3  4
  3  4  1
  3  5  4
  5  6  1
  5  7  4
  7  8  1
  8  9  1
  9 10  4
 10 11  1
 10 12  4
 12 13  1
 12 14  4
 14 15  1
 14 16  4
 16 17  1
 16 18  4
  9 18  4
 18 19  1
  8 20  1
 20 21  1
 21 22  1
  8 22  1
 20 22  1
 22 23  1
 20 23  1
 22 24  1
 24 25  1
 25 26  1
 25 27  1
 25 28  1
 24 29  4
 22 29  1
 29 30  1
 30 31  1
 30 32  1
 30 33  1
 29 34  4
 22 34  1
 34 35  1
 35 36  1
 35 37  1
 35 38  1
 34 39  4
 22 39  1
 39 40  1
 40 41  1
 40 42  1
 40 43  1
 39 44  4
 22 44  1
 44 45  1
 45 46  1
 45 47  1
 45 48  1
 44 49  4
 24 49  4
 22 49  1
 49 50  1
 50 51  1
 50 52  1
 50 53  1
 20 54  1
 54 55  1
 55 56  1
 55 57  1
 55 58  1
 54 59  4
 20 59  1
 59 60  1
 60 61  1
 60 62  1
 60 63  1
 59 64  4
 20 64  1
 64 65  1
 65 66  1
 65 67  1
 65 68  1
 64 69  4
 20 69  1
 69 70  1
 70 71  1
 70 72  1
 70 73  1
 69 74  4
 20 74  1
 74 75  1
 75 76  1
 75 77  1
 75 78  1
 74 79  4
 54 79  4
 20 79  1
 79 80  1
 80 81  1
 80 82  1
 80 83  1
  7 84  4
 84 85  1
 84 86  4
  2 86  4
 86 87  1
M  CHG  1   8   1
M  END
$$$$
