
     RDKit          3D

 57 60  0  0  0  0  0  0  0  0999 V2000
    3.8694    2.0302   -2.7967 C   0  0  0  0  0  0  0  0  0  0  0  0
    3.2719    1.3586   -1.6972 O   0  0  0  0  0  0  0  0  0  0  0  0
    3.7710    1.6237   -0.4466 C   0  0  0  0  0  0  0  0  0  0  0  0
    4.8892    2.4270   -0.1915 C   0  0  0  0  0  0  0  0  0  0  0  0
    5.3298    2.6365    1.1195 C   0  0  0  0  0  0  0  0  0  0  0  0
    4.6603    2.0460    2.1876 C   0  0  0  0  0  0  0  0  0  0  0  0
    3.5467    1.2436    1.9471 C   0  0  0  0  0  0  0  0  0  0  0  0
    3.1004    1.0296    0.6371 C   0  0  0  0  0  0  0  0  0  0  0  0
    1.9428    0.2082    0.4402 C   0  0  0  0  0  0  0  0  0  0  0  0
    0.9547   -0.4593    0.2892 C   0  0  0  0  0  0  0  0  0  0  0  0
   -0.2463   -1.2296    0.1198 C   0  0  0  0  0  0  0  0  0  0  0  0
   -1.4377   -0.7878    0.5881 C   0  0  0  0  0  0  0  0  0  0  0  0
   -1.3736    0.4607    1.3587 N   0  0  0  0  0  0  0  0  0  0  0  0
   -1.3785    1.6760    0.5638 C   0  0  0  0  0  0  0  0  0  0  0  0
   -0.5986    2.7408    1.0283 C   0  0  0  0  0  0  0  0  0  0  0  0
   -0.5959    3.9638    0.3560 C   0  0  0  0  0  0  0  0  0  0  0  0
   -1.3942    4.1383   -0.7727 C   0  0  0  0  0  0  0  0  0  0  0  0
   -2.1993    3.0938   -1.2242 C   0  0  0  0  0  0  0  0  0  0  0  0
   -2.2005    1.8679   -0.5540 C   0  0  0  0  0  0  0  0  0  0  0  0
   -2.6591    0.3780    2.5193 S   0  0  0  0  0  0  0  0  0  0  0  0
   -3.4429    1.5931    2.5501 O   0  0  0  0  0  0  0  0  0  0  0  0
   -2.1847   -0.2800    3.7191 O   0  0  0  0  0  0  0  0  0  0  0  0
   -3.5696   -0.8202    1.6307 C   0  0  0  0  0  0  0  0  0  0  0  0
   -4.9085   -1.1122    1.8496 C   0  0  0  0  0  0  0  0  0  0  0  0
   -5.5125   -2.0252    0.9921 C   0  0  0  0  0  0  0  0  0  0  0  0
   -4.7790   -2.5848   -0.0620 C   0  0  0  0  0  0  0  0  0  0  0  0
   -3.4313   -2.2452   -0.2644 C   0  0  0  0  0  0  0  0  0  0  0  0
   -2.7970   -1.3724    0.6103 C   0  0  0  0  0  0  0  0  0  0  0  0
    0.1668   -2.8635   -0.7326 Si  0  0  0  0  0  4  0  0  0  0  0  0
    2.0399   -3.2008   -0.6871 C   0  0  0  0  0  0  0  0  0  0  0  0
   -0.6241   -4.3291    0.1335 C   0  0  0  0  0  0  0  0  0  0  0  0
   -0.3199   -2.7945   -2.5455 C   0  0  0  0  0  0  0  0  0  0  0  0
    4.9117    1.7218   -2.9259 H   0  0  0  0  0  0  0  0  0  0  0  0
    3.7871    3.1174   -2.6901 H   0  0  0  0  0  0  0  0  0  0  0  0
    3.3248    1.7427   -3.7015 H   0  0  0  0  0  0  0  0  0  0  0  0
    5.4444    2.9045   -0.9916 H   0  0  0  0  0  0  0  0  0  0  0  0
    6.1993    3.2625    1.3048 H   0  0  0  0  0  0  0  0  0  0  0  0
    5.0031    2.2093    3.2058 H   0  0  0  0  0  0  0  0  0  0  0  0
    3.0244    0.7855    2.7842 H   0  0  0  0  0  0  0  0  0  0  0  0
    0.0228    2.6138    1.9107 H   0  0  0  0  0  0  0  0  0  0  0  0
    0.0260    4.7783    0.7169 H   0  0  0  0  0  0  0  0  0  0  0  0
   -1.3972    5.0909   -1.2939 H   0  0  0  0  0  0  0  0  0  0  0  0
   -2.8335    3.2357   -2.0949 H   0  0  0  0  0  0  0  0  0  0  0  0
   -2.8519    1.0816   -0.9202 H   0  0  0  0  0  0  0  0  0  0  0  0
   -5.4638   -0.6345    2.6518 H   0  0  0  0  0  0  0  0  0  0  0  0
   -6.5594   -2.2885    1.1255 H   0  0  0  0  0  0  0  0  0  0  0  0
   -5.2674   -3.2779   -0.7456 H   0  0  0  0  0  0  0  0  0  0  0  0
   -2.9261   -2.6615   -1.1259 H   0  0  0  0  0  0  0  0  0  0  0  0
    2.3974   -3.2221    0.3456 H   0  0  0  0  0  0  0  0  0  0  0  0
    2.5867   -2.4318   -1.2388 H   0  0  0  0  0  0  0  0  0  0  0  0
    2.2530   -4.1702   -1.1474 H   0  0  0  0  0  0  0  0  0  0  0  0
   -0.3950   -4.3111    1.2046 H   0  0  0  0  0  0  0  0  0  0  0  0
   -0.2317   -5.2646   -0.2807 H   0  0  0  0  0  0  0  0  0  0  0  0
   -1.7089   -4.3503    0.0161 H   0  0  0  0  0  0  0  0  0  0  0  0
   -0.1230   -3.7565   -3.0284 H   0  0  0  0  0  0  0  0  0  0  0  0
    0.2641   -2.0297   -3.0663 H   0  0  0  0  0  0  0  0  0  0  0  0
   -1.3768   -2.5565   -2.6804 H   0  0  0  0  0  0  0  0  0  0  0  0
  1  2  1  0
  2  3  1  0
  3  4  2  0
  4  5  1  0
  5  6  2  0
  6  7  1  0
  7  8  2  0
  8  9  1  0
  9 10  3  0
 10 11  1  0
 11 12  2  3
 12 13  1  0
 13 14  1  0
 14 15  2  0
 15 16  1  0
 16 17  2  0
 17 18  1  0
 18 19  2  0
 13 20  1  0
 20 21  2  0
 20 22  2  0
 20 23  1  0
 23 24  2  0
 24 25  1  0
 25 26  2  0
 26 27  1  0
 27 28  2  0
 11 29  1  0
 29 30  1  0
 29 31  1  0
 29 32  1  0
  8  3  1  0
 28 12  1  0
 19 14  1  0
 28 23  1  0
  1 33  1  0
  1 34  1  0
  1 35  1  0
  4 36  1  0
  5 37  1  0
  6 38  1  0
  7 39  1  0
 15 40  1  0
 16 41  1  0
 17 42  1  0
 18 43  1  0
 19 44  1  0
 24 45  1  0
 25 46  1  0
 26 47  1  0
 27 48  1  0
 30 49  1  0
 30 50  1  0
 30 51  1  0
 31 52  1  0
 31 53  1  0
 31 54  1  0
 32 55  1  0
 32 56  1  0
 32 57  1  0
M  END
