
  --CCDC--092525    3D                              

 75 87  0  0  0  0  0  0  0  0999 V2000
   -1.1641   -3.5286   -0.6880 H      0
   -0.7510   -2.5606   -0.4165 C      0
    0.5254   -2.2802   -0.9104 C      0
    1.0708   -3.0657   -1.4266 H      0
    1.1059   -1.0436   -0.6980 C      0
    2.1434   -0.8315   -0.9042 H      0
    0.1147   -0.1157   -0.3198 C      0
    0.5047    1.1624    0.2289 C      0
    1.7280    2.4337    0.9230 Si     0
    3.5187    2.8088    0.5649 C      0
    4.1386    2.4466    1.3833 H      0
    3.6669    3.8875    0.5114 H      0
    3.8537    2.3961   -0.3848 H      0
    1.2121    3.4570   -0.5603 C      0
    0.2332    3.9157   -0.4307 H      0
    1.1563    2.8307   -1.4485 H      0
    1.9181    4.2597   -0.7558 H      0
    1.2245    3.7385    2.1599 C      0
    0.2961    4.2150    1.8515 H      0
    1.9848    4.5185    2.1502 H      0
    1.1089    3.3686    3.1738 H      0
   -0.6492    1.8225    0.8536 C      0
   -0.8751    2.5357    1.7211 H      0
   -1.7139    0.9260    0.7430 C      0
   -1.3280   -0.3693    0.0685 C      0
   -1.5231   -1.7061    0.3948 C      0
   -2.4742   -1.9971    0.8337 H      0
   -0.1036   -0.3137    2.0044 Zr     0
   -0.8238   -2.9103    1.5220 Cl     0
   -2.5936   -0.9295    2.9449 Cl     0
    1.1102    0.6001    3.8350 C      0
    0.6402    1.4460    3.2403 H      0
    2.0718   -0.2802    3.0692 C      0
    3.7374   -0.5456    2.1379 Si     0
    4.0068   -2.3544    1.7577 C      0
    3.6151   -3.0010    2.5406 H      0
    5.0692   -2.5506    1.6316 H      0
    3.5086   -2.6147    0.8242 H      0
    5.0475   -0.2101    3.4309 C      0
    4.8534   -0.7957    4.3286 H      0
    5.0755    0.8389    3.7164 H      0
    6.0377   -0.4850    3.0769 H      0
    4.3041    0.0885    0.4796 C      0
    4.8296   -0.6971   -0.0582 H      0
    5.0364    0.8825    0.5992 H      0
    3.4770    0.4160   -0.1428 H      0
    1.4596   -1.5172    3.2289 C      0
    1.1344   -2.4085    2.2047 C      0
    1.6079   -2.3232    1.2508 H      0
    0.5671   -3.5967    2.6643 C      0
    0.8601   -4.5328    2.1870 H      0
   -0.3740   -3.6157    3.6977 C      0
   -0.7823   -4.5651    4.0232 H      0
   -0.8078   -2.4087    4.2267 C      0
   -1.6969   -2.2852    4.8366 H      0
    0.2361   -1.4702    4.0486 C      0
   -0.0126   -0.1305    4.3847 C      0
   -1.6860    0.7794    4.3293 Si     0
   -1.4034    2.3578    5.3131 C      0
   -1.0617    3.1973    4.7278 H      0
   -2.3945    2.6498    5.6607 H      0
   -0.6717    2.2502    6.1290 H      0
   -2.7106   -0.0597    5.6793 C      0
   -3.0982   -1.0516    5.4581 H      0
   -3.5790    0.5486    5.9204 H      0
   -2.0898   -0.1716    6.5668 H      0
   -2.8306    1.1728    2.2321 Si     0
   -3.3037    2.9846    2.2976 C      0
   -4.2681    3.0978    2.7912 H      0
   -3.3624    3.4423    1.3120 H      0
   -2.5780    3.5401    2.8802 H      0
   -4.5660    0.5757    1.8123 C      0
   -4.6103   -0.3582    1.2588 H      0
   -5.0934    1.3196    1.2168 H      0
   -5.1146    0.4438    2.7380 H      0
  1  2  1
  2  3  4
  3  4  1
  3  5  4
  5  6  1
  5  7  4
  7  8  4
  8  9  1
  9 10  1
 10 11  1
 10 12  1
 10 13  1
  9 14  1
 14 15  1
 14 16  1
 14 17  1
  9 18  1
 18 19  1
 18 20  1
 18 21  1
  8 22  4
 22 23  1
 22 24  4
 24 25  4
  7 25  4
 25 26  4
  2 26  4
 26 27  1
 25 28  1
 22 28  1
 24 28  1
  8 28  1
  7 28  1
 28 29  1
 28 30  1
 28 31  1
 31 32  1
 31 33  4
 28 33  1
 33 34  1
 34 35  1
 35 36  1
 35 37  1
 35 38  1
 34 39  1
 39 40  1
 39 41  1
 39 42  1
 34 43  1
 43 44  1
 43 45  1
 43 46  1
 33 47  4
 28 47  1
 47 48  4
 48 49  1
 48 50  4
 50 51  1
 50 52  4
 52 53  1
 52 54  4
 54 55  1
 54 56  4
 47 56  4
 28 56  1
 56 57  4
 31 57  4
 28 57  1
 57 58  1
 58 59  1
 59 60  1
 59 61  1
 59 62  1
 58 63  1
 63 64  1
 63 65  1
 63 66  1
 58 67  1
 24 67  1
 67 68  1
 68 69  1
 68 70  1
 68 71  1
 67 72  1
 72 73  1
 72 74  1
 72 75  1
M  END
$$$$
