
  --CCDC--092525    3D                              

 76 82  0  0  0  0  0  0  0  0999 V2000
    1.7129   -4.9786   -6.7614 H      0
    1.1669   -4.5352   -5.9353 C      0
   -0.1696   -4.2393   -6.0653 C      0
   -0.6821   -4.4500   -6.9981 H      0
   -0.8623   -3.6710   -5.0101 C      0
   -1.9148   -3.4394   -5.1363 H      0
   -0.2475   -3.3840   -3.7875 C      0
   -1.3049   -2.5881   -2.5330 P      0
   -1.3427   -1.1232   -3.6243 C      0
   -2.5238   -0.3857   -3.7779 C      0
   -3.4257   -0.6835   -3.2552 H      0
   -2.5857    0.7225   -4.6062 C      0
   -3.5173    1.2698   -4.7049 H      0
   -1.4760    1.1311   -5.3084 C      0
   -1.5296    1.9947   -5.9630 H      0
   -0.2967    0.4372   -5.1698 C      0
    0.5847    0.7595   -5.7143 H      0
   -0.2233   -0.6643   -4.3335 C      0
    0.7386   -1.1523   -4.2192 H      0
   -2.0194   -4.2120   -2.3800 C      0
   -3.0731   -4.7940   -3.0857 C      0
   -3.6185   -4.2239   -3.8305 H      0
   -3.4160   -6.1066   -2.8166 C      0
   -4.2460   -6.5700   -3.3396 H      0
   -2.6968   -6.8262   -1.8878 C      0
   -2.9660   -7.8570   -1.6825 H      0
   -1.6250   -6.2522   -1.2216 C      0
   -1.0498   -6.8499   -0.5223 H      0
   -1.2705   -4.9179   -1.4383 C      0
   -0.0023   -4.2435   -0.8896 C      0
    1.0237   -3.4866   -0.5266 N      0
    0.8643   -2.1170   -0.7220 C      0
    1.3838   -1.2734   -1.7083 C      0
    2.1197   -1.6398   -2.4161 H      0
    0.9204    0.0504   -1.7919 C      0
    1.3662    0.6983   -2.5392 H      0
   -0.1325    0.5583   -1.0312 C      0
   -0.5648    1.5309   -1.2414 H      0
   -0.5557   -0.1985    0.0360 C      0
   -1.2617    0.1278    0.7842 H      0
    0.2806   -1.2528    0.0985 C      0
    0.2997   -1.9129    0.8910 H      0
   -0.8462   -2.5978   -0.2362 Co     0
   -3.0157   -1.6806   -0.2979 P      0
   -3.0861   -1.3358    1.4754 C      0
   -3.5909   -0.3879    1.6497 H      0
   -2.0914   -1.2729    1.9102 H      0
   -3.6491   -2.0918    2.0103 H      0
   -4.3092   -2.7517   -0.9887 C      0
   -4.0565   -3.8041   -0.9526 H      0
   -4.4997   -2.5005   -2.0295 H      0
   -5.2426   -2.6107   -0.4477 H      0
   -3.5906    0.0250   -0.5183 C      0
   -3.5979    0.3076   -1.5670 H      0
   -2.9677    0.7377    0.0152 H      0
   -4.6054    0.1305   -0.1404 H      0
   -1.5235   -4.1017    1.4336 P      0
   -1.5575   -3.4523    3.1276 C      0
   -2.4878   -2.9697    3.4012 H      0
   -0.7489   -2.7400    3.2778 H      0
   -1.4103   -4.2672    3.8333 H      0
    0.0647   -4.8708    1.8507 C      0
    0.0276   -5.2619    2.8653 H      0
    0.8717   -4.1425    1.8059 H      0
    0.3143   -5.7082    1.2042 H      0
   -3.2364   -4.6468    1.2288 C      0
   -3.3721   -5.1621    0.2823 H      0
   -3.4989   -5.3463    2.0197 H      0
   -3.9471   -3.8304    1.2727 H      0
    1.1140   -3.6994   -3.6868 C      0
    1.6597   -3.5230   -2.7727 H      0
    1.8046   -4.2640   -4.7469 C      0
    2.8588   -4.4966   -4.6380 H      0
   -2.6647   -2.3858   -2.7554 H      0
   -2.3330   -1.0597   -1.3413 H      0
   -1.4936   -5.4615    1.1145 H      0
  1  2  1
  2  3  4
  3  4  1
  3  5  4
  5  6  1
  5  7  4
  7  8  1
  8  9  1
  9 10  4
 10 11  1
 10 12  4
 12 13  1
 12 14  4
 14 15  1
 14 16  4
 16 17  1
 16 18  4
  9 18  4
 18 19  1
  8 20  1
 20 21  4
 21 22  1
 21 23  4
 23 24  1
 23 25  4
 25 26  1
 25 27  4
 27 28  1
 27 29  4
 20 29  4
 29 30  1
 30 31  2
 31 32  1
 32 33  4
 33 34  1
 33 35  4
 35 36  1
 35 37  4
 37 38  1
 37 39  4
 39 40  1
 39 41  4
 32 41  4
 41 42  1
 42 43  1
 30 43  1
 41 43  1
  8 43  1
 43 44  1
 44 45  1
 45 46  1
 45 47  1
 45 48  1
 44 49  1
 49 50  1
 49 51  1
 49 52  1
 44 53  1
 53 54  1
 53 55  1
 53 56  1
 43 57  1
 57 58  1
 58 59  1
 58 60  1
 58 61  1
 57 62  1
 62 63  1
 62 64  1
 62 65  1
 57 66  1
 66 67  1
 66 68  1
 66 69  1
  7 70  4
 70 71  1
 70 72  4
  2 72  4
 72 73  1
  8 74  1
 44 75  1
 57 76  1
M  END
$$$$
