
  --CCDC--092525    3D                              

 80 84  0  0  0  0  0  0  0  0999 V2000
    2.4272   -1.0914   -4.2823 H      0
    1.8072   -1.3855   -3.4406 C      0
    1.5868   -0.5664   -2.5539 O      0
    2.7131   -1.0899   -1.8540 Cl     0
    0.4551   -0.0974   -3.2841 Cl     0
    2.1984    0.7421   -2.6478 C      0
    2.7468    1.0257   -3.9856 N      0
    2.0792    2.0152   -4.8218 C      0
    1.2889    1.5478   -5.8927 C      0
    1.0526    0.0967   -6.2289 C      0
    0.1986   -0.2977   -5.6839 H      0
    1.9234   -0.5043   -5.9754 H      0
    0.8580   -0.0238   -7.2926 H      0
    0.6187    2.4641   -6.6970 C      0
    0.0170    2.0914   -7.5193 H      0
    0.6768    3.8267   -6.4849 C      0
   -0.0866    4.7925   -7.3579 C      0
   -0.3710    5.6792   -6.7951 H      0
   -0.9931    4.3304   -7.7432 H      0
    0.5190    5.1085   -8.2047 H      0
    1.4505    4.2668   -5.4296 C      0
    1.5115    5.3338   -5.2424 H      0
    2.1688    3.4060   -4.6048 C      0
    3.0288    4.0913   -3.5787 C      0
    3.0862    3.5198   -2.6557 H      0
    2.6189    5.0696   -3.3364 H      0
    4.0301    4.2415   -3.9685 H      0
    4.2214    1.0131   -3.9141 C      0
    4.6507    1.7029   -4.6392 H      0
    4.6097    0.0113   -4.0921 H      0
    4.5179    1.4609   -2.5073 C      0
    4.5004    2.5463   -2.4203 H      0
    5.4793    1.0845   -2.1611 H      0
    3.3975    0.8401   -1.7776 N      0
    3.2378    1.1032   -0.3623 C      0
    4.0287    0.3541    0.5219 C      0
    5.0134   -0.6909    0.0632 C      0
    5.3744   -0.4878   -0.9413 H      0
    4.5521   -1.6763    0.0614 H      0
    5.8735   -0.7240    0.7287 H      0
    3.9008    0.5728    1.8901 C      0
    4.5038   -0.0173    2.5723 H      0
    3.0296    1.5114    2.4124 C      0
    2.9005    1.7158    3.9021 C      0
    3.8352    1.4795    4.4063 H      0
    2.1225    1.0760    4.3132 H      0
    2.6449    2.7488    4.1289 H      0
    2.3029    2.2761    1.5177 C      0
    1.6358    3.0387    1.9057 H      0
    2.4051    2.1158    0.1389 C      0
    1.6493    3.0850   -0.7265 C      0
    1.8749    2.9056   -1.7749 H      0
    1.9345    4.1086   -0.4927 H      0
    0.5757    2.9942   -0.5793 H      0
    0.8497   -0.7957   -1.4715 N      0
    1.7490   -1.0903   -0.4121 C      0
    2.8038   -1.0056   -0.6663 H      0
    1.5493   -2.0405    0.0883 H      0
    1.6453   -0.3501    0.3760 H      0
    0.1438    0.3901   -1.1354 C      0
    0.7375    1.0692   -0.5371 H      0
   -0.7271    0.1506   -0.5307 H      0
   -0.2442    0.9401   -1.9915 H      0
   -0.1540   -1.9534   -1.5557 C      0
   -1.1182   -1.6008   -1.9562 H      0
   -0.4055   -2.4860   -0.1562 C      0
   -1.4252   -2.8571   -0.0775 H      0
   -0.2809   -1.7096    0.5951 H      0
    0.2587   -3.3115    0.0895 H      0
    0.3593   -3.0721   -2.4249 C      0
   -0.0782   -4.3886   -2.3120 C      0
   -0.8013   -4.6607   -1.5445 H      0
    0.4108   -5.3526   -3.1810 C      0
    0.0701   -6.3834   -3.0949 H      0
    1.3279   -5.0106   -4.1550 C      0
    1.7076   -5.7727   -4.8339 H      0
    1.7673   -3.7003   -4.2719 C      0
    2.4906   -3.4358   -5.0418 H      0
    1.2815   -2.7172   -3.4008 C      0
    1.4766    1.5097   -2.3725 H      0
  1  2  1
  2  3  2
  3  4  1
  3  5  1
  3  6  1
  6  7  1
  7  8  1
  8  9  4
  9 10  1
 10 11  1
 10 12  1
 10 13  1
  9 14  4
 14 15  1
 14 16  4
 16 17  1
 17 18  1
 17 19  1
 17 20  1
 16 21  4
 21 22  1
 21 23  4
  8 23  4
 23 24  1
 24 25  1
 24 26  1
 24 27  1
  7 28  1
 28 29  1
 28 30  1
 28 31  1
 31 32  1
 31 33  1
 31 34  1
  6 34  1
 34 35  1
 35 36  4
 36 37  1
 37 38  1
 37 39  1
 37 40  1
 36 41  4
 41 42  1
 41 43  4
 43 44  1
 44 45  1
 44 46  1
 44 47  1
 43 48  4
 48 49  1
 48 50  4
 35 50  4
 50 51  1
 51 52  1
 51 53  1
 51 54  1
  3 55  1
 55 56  1
 56 57  1
 56 58  1
 56 59  1
 55 60  1
 60 61  1
 60 62  1
 60 63  1
 55 64  1
 64 65  1
 64 66  1
 66 67  1
 66 68  1
 66 69  1
 64 70  1
 70 71  4
 71 72  1
 71 73  4
 73 74  1
 73 75  4
 75 76  1
 75 77  4
 77 78  1
 77 79  4
 70 79  4
  2 79  1
  6 80  1
M  END
$$$$
