
  --CCDC--092525    3D                              

 73 77  0  0  0  0  0  0  0  0999 V2000
   -0.1350    0.2100    0.0240 Cl     0
    1.1856    2.2028   -0.1912 Ir     0
    0.1259    2.9959    1.4329 N      0
   -1.2293    2.9703    1.3990 C      0
   -2.0199    3.2910    0.2411 C      0
   -1.4995    4.0140   -0.9688 C      0
   -0.3865    2.9600   -1.9143 P      0
   -1.3573    1.5701   -2.5603 C      0
   -2.4121    2.0262   -3.5682 C      0
   -0.4969    0.4734   -3.1934 C      0
    0.4438    3.9149   -3.2142 C      0
   -0.5367    4.8127   -3.9702 C      0
    1.2133    3.0454   -4.2077 C      0
   -3.3604    3.0050    0.2404 C      0
   -4.0057    2.5071    1.3564 C      0
   -3.3220    2.3408    2.5192 C      0
   -1.9345    2.6098    2.5737 C      0
   -1.2264    2.5523    3.7606 C      0
    0.1113    2.9102    3.8114 C      0
    0.7775    2.9918    5.0552 C      0
    2.0772    3.3752    5.1117 C      0
    2.7518    3.6939    3.9507 C      0
    2.1759    3.6225    2.7079 C      0
    3.1225    4.0494    1.6119 C      0
    2.3272    4.3617    0.0268 P      0
    1.2769    5.8224    0.2605 C      0
    0.9435    6.5524   -1.0421 C      0
    1.9750    6.8227    1.1835 C      0
    3.5829    4.6422   -1.2464 C      0
    4.5342    3.4480   -1.3220 C      0
    4.3833    5.9157   -0.9742 C      0
    0.7995    3.1866    2.5970 C      0
    2.3383    1.4964    0.7371 H      0
    2.0915    1.6949   -1.4604 H      0
   -2.3336    4.3403   -1.6022 H      0
   -0.9681    4.9073   -0.6269 H      0
   -1.8861    1.1233   -1.7045 H      0
   -3.0903    1.2097   -3.8069 H      0
   -1.9470    2.3524   -4.4950 H      0
   -3.0009    2.8495   -3.1689 H      0
   -0.1249    0.7704   -4.1688 H      0
   -1.0816   -0.4339   -3.3299 H      0
    0.3595    0.2306   -2.5695 H      0
    1.1785    4.5667   -2.7198 H      0
   -1.2720    4.2262   -4.5142 H      0
   -0.0085    5.4369   -4.6879 H      0
   -1.0680    5.4666   -3.2819 H      0
    1.7991    2.2870   -3.6925 H      0
    1.8937    3.6557   -4.7979 H      0
    0.5337    2.5537   -4.8984 H      0
   -3.9367    3.1909   -0.6599 H      0
   -5.0642    2.2731    1.3114 H      0
   -3.8440    2.0091    3.4107 H      0
   -1.7373    2.2650    4.6736 H      0
    0.2447    2.7530    5.9698 H      0
    2.5842    3.4372    6.0689 H      0
    3.7856    4.0148    4.0243 H      0
    3.6613    4.9512    1.9282 H      0
    3.8681    3.2562    1.4764 H      0
    0.3430    5.5130    0.7548 H      0
    0.2809    5.9689   -1.6724 H      0
    1.8482    6.7737   -1.6045 H      0
    0.4427    7.4943   -0.8283 H      0
    1.3580    7.7077    1.3240 H      0
    2.9290    7.1403    0.7700 H      0
    2.1594    6.3852    2.1622 H      0
    3.0805    4.7494   -2.2199 H      0
    3.9882    2.5335   -1.5442 H      0
    5.0559    3.3101   -0.3772 H      0
    5.2784    3.5964   -2.1016 H      0
    5.1668    6.0427   -1.7183 H      0
    4.8512    5.8770    0.0073 H      0
    3.7399    6.7917   -1.0125 H      0
  1  2  1
  2  3  1
  3  4  4
  4  5  4
  5  6  1
  6  7  1
  2  7  1
  7  8  1
  8  9  1
  8 10  1
  7 11  1
 11 12  1
 11 13  1
  5 14  4
 14 15  4
 15 16  4
 16 17  4
  4 17  4
 17 18  4
 18 19  4
 19 20  4
 20 21  4
 21 22  4
 22 23  4
 23 24  1
 24 25  1
  2 25  1
 25 26  1
 26 27  1
 26 28  1
 25 29  1
 29 30  1
 29 31  1
 23 32  4
  3 32  4
 19 32  4
  2 33  1
  2 34  1
  6 35  1
  6 36  1
  8 37  1
  9 38  1
  9 39  1
  9 40  1
 10 41  1
 10 42  1
 10 43  1
 11 44  1
 12 45  1
 12 46  1
 12 47  1
 13 48  1
 13 49  1
 13 50  1
 14 51  1
 15 52  1
 16 53  1
 18 54  1
 20 55  1
 21 56  1
 22 57  1
 24 58  1
 24 59  1
 26 60  1
 27 61  1
 27 62  1
 27 63  1
 28 64  1
 28 65  1
 28 66  1
 29 67  1
 30 68  1
 30 69  1
 30 70  1
 31 71  1
 31 72  1
 31 73  1
M  END
$$$$
