
 OpenBabel09252518323D

 28 28  0  0  0  0  0  0  0  0999 V2000
    0.9321    0.0465   -0.0245 C   0  0  0  0  0  0  0  0  0  0  0  0
    0.6694    0.7025    1.3276 C   0  0  0  0  0  0  0  0  0  0  0  0
    1.1278    2.1611    1.3772 C   0  0  0  0  0  0  0  0  0  0  0  0
    0.1044    3.2159    1.2356 C   0  0  0  0  0  0  0  0  0  0  0  0
   -1.2214    3.0676    1.0666 C   0  0  0  0  0  0  0  0  0  0  0  0
   -2.1488    4.2099    0.9878 C   0  0  0  0  0  0  0  0  0  0  0  0
   -1.8933    5.3189    0.1670 C   0  0  0  0  0  0  0  0  0  0  0  0
   -2.8088    6.3725    0.0948 C   0  0  0  0  0  0  0  0  0  0  0  0
   -3.9822    6.3145    0.8362 C   0  0  0  0  0  0  0  0  0  0  0  0
   -4.8606    7.3228    0.7632 F   0  0  0  0  0  0  0  0  0  0  0  0
   -4.2595    5.2217    1.6477 C   0  0  0  0  0  0  0  0  0  0  0  0
   -3.3455    4.1669    1.7198 C   0  0  0  0  0  0  0  0  0  0  0  0
    2.4414    2.4657    1.5767 C   0  0  0  0  0  0  0  0  0  0  0  0
    3.4290    1.4482    1.7415 C   0  0  0  0  0  0  0  0  0  0  0  0
    4.2192    0.6077    1.8714 N   0  0  0  0  0  0  0  0  0  0  0  0
    2.9251    3.8076    1.6208 C   0  0  0  0  0  0  0  0  0  0  0  0
    3.3071    4.9029    1.6475 N   0  0  0  0  0  0  0  0  0  0  0  0
    0.4715    0.6092   -0.8423 H   0  0  0  0  0  0  0  0  0  0  0  0
    0.5222   -0.9688   -0.0348 H   0  0  0  0  0  0  0  0  0  0  0  0
    2.0045   -0.0345   -0.2306 H   0  0  0  0  0  0  0  0  0  0  0  0
   -0.3910    0.5969    1.5735 H   0  0  0  0  0  0  0  0  0  0  0  0
    1.1735    0.1229    2.1116 H   0  0  0  0  0  0  0  0  0  0  0  0
    0.4634    4.2446    1.3047 H   0  0  0  0  0  0  0  0  0  0  0  0
   -1.7040    2.0977    1.0110 H   0  0  0  0  0  0  0  0  0  0  0  0
   -0.9860    5.3711   -0.4304 H   0  0  0  0  0  0  0  0  0  0  0  0
   -2.6155    7.2332   -0.5376 H   0  0  0  0  0  0  0  0  0  0  0  0
   -5.1834    5.1970    2.2170 H   0  0  0  0  0  0  0  0  0  0  0  0
   -3.5721    3.3174    2.3604 H   0  0  0  0  0  0  0  0  0  0  0  0
  1  2  1  0  0  0  0
  1 18  1  0  0  0  0
  1 19  1  0  0  0  0
  1 20  1  0  0  0  0
  2  3  1  0  0  0  0
  2 21  1  0  0  0  0
  2 22  1  0  0  0  0
  3  4  1  0  0  0  0
  3 13  2  0  0  0  0
  4  5  2  0  0  0  0
  4 23  1  0  0  0  0
  5  6  1  0  0  0  0
  5 24  1  0  0  0  0
  6  7  1  0  0  0  0
  6 12  2  0  0  0  0
  7  8  2  0  0  0  0
  7 25  1  0  0  0  0
  8  9  1  0  0  0  0
  8 26  1  0  0  0  0
  9 10  1  0  0  0  0
  9 11  2  0  0  0  0
 11 12  1  0  0  0  0
 11 27  1  0  0  0  0
 12 28  1  0  0  0  0
 13 14  1  0  0  0  0
 13 16  1  0  0  0  0
 14 15  3  0  0  0  0
 16 17  3  0  0  0  0
M  END
$$$$
