
  --CCDC--092525    3D                              

 73 75  0  0  0  0  0  0  0  0999 V2000
    0.5350    0.1080   -0.6763 H      0
    0.9485    1.1024   -0.5439 C      0
    1.1462    1.9215   -1.6323 C      0
    0.8853    1.5713   -2.6255 H      0
    1.6768    3.1901   -1.4666 C      0
    1.8211    3.8167   -2.3380 H      0
    2.0232    3.6677   -0.2048 C      0
    2.6319    5.0535   -0.0510 C      0
    3.1627    5.9091   -0.7042 C      0
    3.6091    6.1579   -2.1123 C      0
    2.6429    6.3006   -3.1048 C      0
    1.5931    6.2479   -2.8361 H      0
    2.9949    6.5067   -4.4280 C      0
    2.2226    6.6166   -5.1821 H      0
    4.3211    6.5712   -4.7901 C      0
    4.5973    6.7312   -5.8271 H      0
    5.2946    6.4316   -3.8270 C      0
    6.3414    6.4827   -4.1077 H      0
    4.9470    6.2282   -2.5016 C      0
    5.7359    6.1330   -1.7673 H      0
    3.2806    6.4091    1.1570 Co     3
    3.3390    6.1416    3.0717 N      0
    3.3583    5.9786    4.2034 C      0
    3.4174    5.7819    5.6452 C      0
    2.4204    5.6356    6.0556 H      0
    3.8618    6.6461    6.1344 H      0
    4.0167    4.9078    5.8910 H      0
    1.1713    7.0863    1.8803 P      0
    1.0143    8.1426    3.3416 C      0
    0.1822    7.8063    3.9565 H      0
    0.8032    9.1695    3.0551 H      0
    1.9088    8.1312    3.9571 H      0
    0.8412    8.1871    0.4874 C      0
   -0.2292    8.3514    0.3827 H      0
    1.2102    7.7623   -0.4438 H      0
    1.3021    9.1569    0.6377 H      0
    0.6332    5.4508    2.4348 C      0
    0.0885    4.9524    1.6423 H      0
   -0.0529    5.5527    3.2730 H      0
    1.4529    4.8150    2.7567 H      0
    5.4141    5.5825    1.4669 P      0
    4.7024    3.9402    1.7311 C      0
    3.7903    3.9664    2.3191 H      0
    5.4138    3.3085    2.2589 H      0
    4.4890    3.4588    0.7809 H      0
    6.6468    4.9939    0.2814 C      0
    6.1681    4.4796   -0.5494 H      0
    7.3382    4.3007    0.7560 H      0
    7.2226    5.8247   -0.1209 H      0
    6.2216    6.3746    2.8817 C      0
    5.6754    7.2258    3.2668 H      0
    7.2197    6.7096    2.6117 H      0
    6.3359    5.6585    3.6929 H      0
    4.0896    8.5882    1.0398 P      0
    3.9310    9.2301    2.7247 C      0
    4.0134    8.4466    3.4704 H      0
    2.9924    9.7442    2.8731 H      0
    4.7183    9.9558    2.9177 H      0
    5.8843    8.8101    0.9549 C      0
    6.3476    8.0696    0.3067 H      0
    6.3341    8.7487    1.9404 H      0
    6.1198    9.7951    0.5573 H      0
    3.7809    9.0783   -0.6775 C      0
    3.7669   10.1635   -0.7539 H      0
    2.8412    8.7109   -1.0733 H      0
    4.5724    8.7274   -1.3269 H      0
    1.8058    2.8234    0.8834 C      0
    2.0449    3.1671    1.8835 H      0
    1.2774    1.5546    0.7137 C      0
    1.1203    0.9151    1.5760 H      0
   -0.0266    6.7517    1.2376 H      0
    5.3178    6.4215    0.3566 H      0
    3.1752    9.6465    1.0563 H      0
  1  2  1
  2  3  4
  3  4  1
  3  5  4
  5  6  1
  5  7  4
  7  8  1
  8  9  3
  9 10  1
 10 11  4
 11 12  1
 11 13  4
 13 14  1
 13 15  4
 15 16  1
 15 17  4
 17 18  1
 17 19  4
 10 19  4
 19 20  1
  9 21  1
  8 21  1
 21 22  1
 22 23  3
 23 24  1
 24 25  1
 24 26  1
 24 27  1
 21 28  1
 28 29  1
 29 30  1
 29 31  1
 29 32  1
 28 33  1
 33 34  1
 33 35  1
 33 36  1
 28 37  1
 37 38  1
 37 39  1
 37 40  1
 21 41  1
 41 42  1
 42 43  1
 42 44  1
 42 45  1
 41 46  1
 46 47  1
 46 48  1
 46 49  1
 41 50  1
 50 51  1
 50 52  1
 50 53  1
 21 54  1
 54 55  1
 55 56  1
 55 57  1
 55 58  1
 54 59  1
 59 60  1
 59 61  1
 59 62  1
 54 63  1
 63 64  1
 63 65  1
 63 66  1
  7 67  4
 67 68  1
 67 69  4
  2 69  4
 69 70  1
 28 71  1
 41 72  1
 54 73  1
M  CHG  1  21   1
M  END
$$$$
