
  --CCDC--092525    3D                              

 80 95  0  0  0  0  0  0  0  0999 V2000
   -0.1902   -1.9296   -3.0074 C      0
    1.2022   -2.1980   -3.1595 O      0
    1.9577   -2.5708   -2.0757 C      0
    3.3038   -2.8211   -2.2696 C      0
    4.1000   -3.1993   -1.2044 C      0
    3.5687   -3.3337    0.0704 C      0
    2.2135   -3.0798    0.2565 C      0
    1.4127   -2.7013   -0.8072 C      0
    4.4584   -3.7275    1.1142 N      0
    6.3646   -4.0086    0.5772 Cu     0
    7.0884   -6.0233   -0.4411 P      0
    5.7995   -6.8157   -1.4322 C      0
    4.4670   -6.7408   -1.0425 C      0
    3.4901   -7.4114   -1.7595 C      0
    3.8341   -8.1770   -2.8525 C      0
    5.1558   -8.2849   -3.2273 C      0
    6.1392   -7.6176   -2.5160 C      0
    7.6340   -7.1955    0.8238 C      0
    7.6113   -8.5627    0.5719 C      0
    8.1005   -9.4549    1.5114 C      0
    8.6344   -8.9931    2.6950 C      0
    8.6922   -7.6383    2.9402 C      0
    8.2054   -6.7390    2.0062 C      0
    8.5024   -5.5898   -1.4831 C      0
    9.7533   -6.3129   -1.8812 C      0
   10.6541   -5.5998   -2.6950 C      0
    9.9827   -4.4661   -3.1106 C      0
    8.7031   -4.5354   -2.5310 C      0
   10.1659   -4.4301   -1.0118 Fe     0
   11.5112   -4.5253    0.6070 C      0
   11.9011   -3.5116   -0.2468 C      0
   10.8475   -2.5777   -0.2539 C      0
    9.5681   -3.0149    0.3927 C      0
   10.2369   -4.1670    1.0822 C      0
    7.9457   -2.2424    0.6021 P      0
    7.9019   -1.2780    2.1318 C      0
    7.0178   -0.2135    2.2680 C      0
    6.9322    0.4754    3.4664 C      0
    7.7069    0.0970    4.5414 C      0
    8.5622   -0.9775    4.4274 C      0
    8.6542   -1.6721    3.2327 C      0
    7.6515   -1.1234   -0.7882 C      0
    7.1356   -1.6089   -1.9846 C      0
    6.9813   -0.7663   -3.0729 C      0
    7.3600    0.5559   -2.9861 C      0
    7.9047    1.0390   -1.8161 C      0
    8.0622    0.2034   -0.7229 C      0
    4.1569   -3.9451    2.4902 C      0
    3.0714   -3.8263    3.0224 O      0
    5.3331   -4.3644    3.3926 C      0
    5.8589   -5.5192    3.0181 F      0
    4.9639   -4.5050    4.6553 F      0
    6.3126   -3.4754    3.3783 F      0
   -0.6352   -1.6488   -3.9597 H      0
   -0.3514   -1.1148   -2.3046 H      0
   -0.7137   -2.8075   -2.6344 H      0
    3.7360   -2.7207   -3.2597 H      0
    5.1547   -3.3944   -1.3675 H      0
    1.7589   -3.1720    1.2345 H      0
    0.3599   -2.5108   -0.6287 H      0
    4.1907   -6.1518   -0.1741 H      0
    2.4506   -7.3355   -1.4583 H      0
    3.0658   -8.6976   -3.4146 H      0
    5.4273   -8.8965   -4.0814 H      0
    7.1793   -7.7190   -2.8077 H      0
    7.2059   -8.9326   -0.3641 H      0
    8.0651  -10.5212    1.3140 H      0
    9.0128   -9.6951    3.4307 H      0
    9.1227   -7.2747    3.8675 H      0
    8.2677   -5.6732    2.1995 H      0
    6.3940    0.0807    1.4304 H      0
    6.2509    1.3147    3.5598 H      0
    7.6405    0.6416    5.4774 H      0
    9.1640   -1.2819    5.2773 H      0
    9.3187   -2.5262    3.1547 H      0
    6.8507   -2.6526   -2.0656 H      0
    6.5630   -1.1491   -3.9979 H      0
    7.2337    1.2144   -3.8391 H      0
    8.2133    2.0772   -1.7518 H      0
    8.5055    0.5869    0.1902 H      0
  1  2  1
  2  3  1
  3  4  4
  4  5  4
  5  6  4
  6  7  4
  7  8  4
  3  8  4
  6  9  1
  9 10  1
 10 11  1
 11 12  1
 12 13  4
 13 14  4
 14 15  4
 15 16  4
 16 17  4
 12 17  4
 11 18  1
 18 19  4
 19 20  4
 20 21  4
 21 22  4
 22 23  4
 18 23  4
 11 24  1
 24 25  4
 25 26  4
 26 27  4
 27 28  4
 24 28  4
 28 29  1
 24 29  1
 25 29  1
 26 29  1
 27 29  1
 29 30  1
 30 31  4
 29 31  1
 31 32  4
 29 32  1
 32 33  4
 29 33  1
 33 34  4
 29 34  1
 30 34  4
 33 35  1
 10 35  1
 35 36  1
 36 37  4
 37 38  4
 38 39  4
 39 40  4
 40 41  4
 36 41  4
 35 42  1
 42 43  4
 43 44  4
 44 45  4
 45 46  4
 46 47  4
 42 47  4
  9 48  1
 48 49  2
 48 50  1
 50 51  1
 50 52  1
 50 53  1
  1 54  1
  1 55  1
  1 56  1
  4 57  1
  5 58  1
  7 59  1
  8 60  1
 13 61  1
 14 62  1
 15 63  1
 16 64  1
 17 65  1
 19 66  1
 20 67  1
 21 68  1
 22 69  1
 23 70  1
 37 71  1
 38 72  1
 39 73  1
 40 74  1
 41 75  1
 43 76  1
 44 77  1
 45 78  1
 46 79  1
 47 80  1
M  END
$$$$
