
 OpenBabel09252516083D

 75 87  0  0  1  0  0  0  0  0999 V2000
    1.0641   -0.0672    0.0371 H   0  0  0  0  0  0  0  0  0  0  0  0
    2.1341   -0.0672    0.0371 C   0  0  0  0  0  3  0  0  0  0  0  0
    2.5481   -1.2022    0.6920 C   0  0  0  0  0  3  0  0  0  0  0  0
    3.5941   -1.1039    0.8950 H   0  0  0  0  0  0  0  0  0  0  0  0
    2.3412   -2.4770   -0.0514 C   0  0  0  0  0  3  0  0  0  0  0  0
    2.8241   -3.2800    0.4652 H   0  0  0  0  0  0  0  0  0  0  0  0
    2.9370   -2.3230   -1.4229 C   0  0  1  0  0  0  0  0  0  0  0  0
    2.8542   -1.4383    0.0407 C   0  0  1  0  0  0  0  0  0  0  0  0
    3.9788   -0.8097    1.3961 Si  0  0  0  0  0  0  0  0  0  0  0  0
    4.8415   -2.2551    2.2106 C   0  0  0  0  0  0  0  0  0  0  0  0
    5.4214   -2.7814    1.4814 H   0  0  0  0  0  0  0  0  0  0  0  0
    5.4850   -1.8955    2.9861 H   0  0  0  0  0  0  0  0  0  0  0  0
    4.1117   -2.9156    2.6303 H   0  0  0  0  0  0  0  0  0  0  0  0
    5.2542    0.3445    0.6625 C   0  0  0  0  0  0  0  0  0  0  0  0
    4.7606    1.1716    0.1965 H   0  0  0  0  0  0  0  0  0  0  0  0
    5.8977    0.7042    1.4381 H   0  0  0  0  0  0  0  0  0  0  0  0
    5.8341   -0.1818   -0.0666 H   0  0  0  0  0  0  0  0  0  0  0  0
    2.9654    0.1100    2.6704 C   0  0  0  0  0  0  0  0  0  0  0  0
    2.4718    0.9371    2.2043 H   0  0  0  0  0  0  0  0  0  0  0  0
    2.2356   -0.5504    3.0901 H   0  0  0  0  0  0  0  0  0  0  0  0
    3.6089    0.4697    3.4459 H   0  0  0  0  0  0  0  0  0  0  0  0
    5.1102    2.9886    0.2539 C   0  0  1  0  0  0  0  0  0  0  0  0
    4.7417    3.9394   -0.0703 H   0  0  0  0  0  0  0  0  0  0  0  0
    4.5298    1.8935   -0.6260 C   0  0  1  0  0  0  0  0  0  0  0  0
    3.1699    2.0238   -0.5514 C   0  0  1  0  0  0  0  0  0  0  0  0
    2.5908    1.2621    0.6042 C   0  0  0  0  0  3  0  0  0  0  0  0
    1.7613    1.7934    1.0221 H   0  0  0  0  0  0  0  0  0  0  0  0
    4.2144   -2.6728   -1.6698 Zr  0  0  0  0  0  0  0  0  0  0  0  0
    2.7680   -1.1663   -3.4895 Cl  0  0  0  0  0  0  0  0  0  0  0  0
    5.3548   -0.8103    0.0341 Cl  0  0  0  0  0  0  0  0  0  0  0  0
    4.9678   -2.3544   -2.8811 C   0  0  2  0  0  0  0  0  0  0  0  0
    4.3696   -2.5085   -3.7548 H   0  0  0  0  0  0  0  0  0  0  0  0
    6.2003   -3.2614   -2.9275 C   0  0  2  0  0  0  0  0  0  0  0  0
    7.5951   -3.5422   -4.1410 Si  0  0  0  0  0  0  0  0  0  0  0  0
    6.9365   -4.4195   -5.6554 C   0  0  0  0  0  0  0  0  0  0  0  0
    6.1796   -3.8186   -6.1148 H   0  0  0  0  0  0  0  0  0  0  0  0
    7.7346   -4.5802   -6.3498 H   0  0  0  0  0  0  0  0  0  0  0  0
    6.5184   -5.3617   -5.3683 H   0  0  0  0  0  0  0  0  0  0  0  0
    8.3257   -1.8956   -4.6429 C   0  0  0  0  0  0  0  0  0  0  0  0
    8.7025   -1.3937   -3.7763 H   0  0  0  0  0  0  0  0  0  0  0  0
    9.1238   -2.0563   -5.3372 H   0  0  0  0  0  0  0  0  0  0  0  0
    7.5688   -1.2948   -5.1022 H   0  0  0  0  0  0  0  0  0  0  0  0
    8.9178   -4.5924   -3.3382 C   0  0  0  0  0  0  0  0  0  0  0  0
    9.2946   -4.0904   -2.4716 H   0  0  0  0  0  0  0  0  0  0  0  0
    8.4997   -5.5345   -3.0510 H   0  0  0  0  0  0  0  0  0  0  0  0
    9.7159   -4.7531   -4.0326 H   0  0  0  0  0  0  0  0  0  0  0  0
    6.2063   -4.0437   -1.6042 C   0  0  2  0  0  0  0  0  0  0  0  0
    7.3059   -5.0655   -1.3645 C   0  0  0  0  0  3  0  0  0  0  0  0
    6.9489   -6.0407   -1.6224 H   0  0  0  0  0  0  0  0  0  0  0  0
    8.5116   -4.7235   -2.2246 C   0  0  0  0  0  3  0  0  0  0  0  0
    8.8685   -3.7483   -1.9667 H   0  0  0  0  0  0  0  0  0  0  0  0
    9.6111   -5.7453   -1.9849 C   0  0  0  0  0  3  0  0  0  0  0  0
   10.4599   -5.5045   -2.5903 H   0  0  0  0  0  0  0  0  0  0  0  0
    4.8654   -4.1453    0.5703 C   0  0  0  0  0  3  0  0  0  0  0  0
    5.7817   -4.6082    0.8723 H   0  0  0  0  0  0  0  0  0  0  0  0
    5.0646   -3.4532   -0.7682 C   0  0  2  0  0  0  0  0  0  0  0  0
    5.3985   -0.9014   -2.8215 C   0  0  2  0  0  0  0  0  0  0  0  0
    4.7391   -0.1098   -1.9117 Si  0  0  0  0  0  0  0  0  0  0  0  0
    5.2016   -0.7816   -0.2289 C   0  0  0  0  0  0  0  0  0  0  0  0
    4.6938   -0.2235    0.5298 H   0  0  0  0  0  0  0  0  0  0  0  0
    4.9169   -1.8110   -0.1652 H   0  0  0  0  0  0  0  0  0  0  0  0
    6.2587   -0.6946   -0.0883 H   0  0  0  0  0  0  0  0  0  0  0  0
    2.9108   -0.1994   -2.2939 C   0  0  0  0  0  0  0  0  0  0  0  0
    2.7366    0.1545   -3.2885 H   0  0  0  0  0  0  0  0  0  0  0  0
    2.5787   -1.2134   -2.2128 H   0  0  0  0  0  0  0  0  0  0  0  0
    2.3709    0.4093   -1.5990 H   0  0  0  0  0  0  0  0  0  0  0  0
    5.1316    1.3279   -1.8931 Si  0  0  0  0  0  0  0  0  0  0  0  0
    4.5263    2.2328   -3.4135 C   0  0  0  0  0  0  0  0  0  0  0  0
    4.8123    3.2621   -3.3534 H   0  0  0  0  0  0  0  0  0  0  0  0
    4.9600    1.7924   -4.2869 H   0  0  0  0  0  0  0  0  0  0  0  0
    3.4601    2.1615   -3.4701 H   0  0  0  0  0  0  0  0  0  0  0  0
    6.9937    1.4971   -1.8647 C   0  0  0  0  0  0  0  0  0  0  0  0
    7.3819    1.0192   -0.9896 H   0  0  0  0  0  0  0  0  0  0  0  0
    7.4071    1.0349   -2.7366 H   0  0  0  0  0  0  0  0  0  0  0  0
    7.2574    2.5340   -1.8515 H   0  0  0  0  0  0  0  0  0  0  0  0
  1  2  1  0  0  0  0
  2  3  1  0  0  0  0
  2 26  1  0  0  0  0
  3  4  1  0  0  0  0
  3  5  1  0  0  0  0
  5  6  1  0  0  0  0
  7  5  1  1  0  0  0
  7  8  1  0  0  0  0
  7 25  1  0  0  0  0
  7 28  1  0  0  0  0
  8  9  1  6  0  0  0
  8 22  1  0  0  0  0
  8 28  1  0  0  0  0
  9 10  1  0  0  0  0
  9 14  1  0  0  0  0
  9 18  1  0  0  0  0
 10 11  1  0  0  0  0
 10 12  1  0  0  0  0
 10 13  1  0  0  0  0
 14 15  1  0  0  0  0
 14 16  1  0  0  0  0
 14 17  1  0  0  0  0
 18 19  1  0  0  0  0
 18 20  1  0  0  0  0
 18 21  1  0  0  0  0
 22 23  1  6  0  0  0
 22 24  1  0  0  0  0
 22 28  1  0  0  0  0
 24 25  1  0  0  0  0
 24 28  1  0  0  0  0
 24 67  1  1  0  0  0
 25 26  1  1  0  0  0
 25 28  1  0  0  0  0
 26 27  1  0  0  0  0
 28 29  1  0  0  0  0
 28 30  1  0  0  0  0
 28 31  1  0  0  0  0
 28 33  1  0  0  0  0
 28 47  1  0  0  0  0
 28 56  1  0  0  0  0
 28 57  1  0  0  0  0
 31 32  1  6  0  0  0
 31 33  1  0  0  0  0
 31 57  1  0  0  0  0
 33 34  1  6  0  0  0
 33 47  1  0  0  0  0
 34 35  1  0  0  0  0
 34 39  1  0  0  0  0
 34 43  1  0  0  0  0
 35 36  1  0  0  0  0
 35 37  1  0  0  0  0
 35 38  1  0  0  0  0
 39 40  1  0  0  0  0
 39 41  1  0  0  0  0
 39 42  1  0  0  0  0
 43 44  1  0  0  0  0
 43 45  1  0  0  0  0
 43 46  1  0  0  0  0
 47 48  1  6  0  0  0
 47 56  1  0  0  0  0
 48 49  1  0  0  0  0
 48 50  1  0  0  0  0
 50 51  1  0  0  0  0
 50 52  1  0  0  0  0
 52 53  1  0  0  0  0
 52 54  1  0  0  0  0
 54 55  1  0  0  0  0
 56 54  1  1  0  0  0
 56 57  1  0  0  0  0
 57 58  1  6  0  0  0
 58 59  1  0  0  0  0
 58 63  1  0  0  0  0
 58 67  1  0  0  0  0
 59 60  1  0  0  0  0
 59 61  1  0  0  0  0
 59 62  1  0  0  0  0
 63 64  1  0  0  0  0
 63 65  1  0  0  0  0
 63 66  1  0  0  0  0
 67 68  1  0  0  0  0
 67 72  1  0  0  0  0
 68 69  1  0  0  0  0
 68 70  1  0  0  0  0
 68 71  1  0  0  0  0
 72 73  1  0  0  0  0
 72 74  1  0  0  0  0
 72 75  1  0  0  0  0
M  END
$$$$
