
     RDKit          3D

  0  0  0  0  0  0  0  0  0  0999 V3000
M  V30 BEGIN CTAB
M  V30 COUNTS 47 52 0 0 0
M  V30 BEGIN ATOM
M  V30 1 C -1.848401 0.285361 2.899372 0
M  V30 2 C -2.145414 1.030406 1.646944 0
M  V30 3 N -2.076298 1.781717 0.584471 0
M  V30 4 C -2.358839 2.486937 -0.573340 0
M  V30 5 C -1.159261 3.426616 -0.764579 0
M  V30 6 C -0.158524 2.709217 -1.651126 0
M  V30 7 N 0.584047 1.736149 -1.032664 0
M  V30 8 C 1.594906 1.033604 -0.676843 0
M  V30 9 C 2.208313 -0.065854 0.056879 0
M  V30 10 C 1.666390 -0.492282 1.285778 0
M  V30 11 O 0.571081 0.299978 1.562938 0
M  V30 12 Cu -0.447384 0.770677 0.216398 0 VAL=4
M  V30 13 O -1.299302 -0.644641 -0.819332 0
M  V30 14 C -2.618211 -0.799716 -0.204280 0
M  V30 15 C -3.415877 -1.759958 -0.851716 0
M  V30 16 C -4.651065 -1.959029 -0.289263 0
M  V30 17 C -5.180356 -1.337660 0.811456 0
M  V30 18 C -4.376094 -0.410766 1.408574 0
M  V30 19 C -3.074026 -0.037233 1.004871 0
M  V30 20 C 2.193287 -1.546492 2.047166 0
M  V30 21 C 3.291211 -2.096527 1.438170 0
M  V30 22 C 3.869224 -1.739794 0.255703 0
M  V30 23 C 4.974046 -2.391210 -0.238690 0
M  V30 24 C 5.560288 -2.040265 -1.435522 0
M  V30 25 C 5.033454 -1.002355 -2.175798 0
M  V30 26 C 3.925290 -0.367000 -1.655447 0
M  V30 27 C 3.336807 -0.710579 -0.464466 0
M  V30 28 H -2.721424 -0.019098 3.455599 0
M  V30 29 H -1.462007 1.165618 3.581877 0
M  V30 30 H -1.033582 -0.390029 2.935707 0
M  V30 31 H -3.315657 3.046086 -0.499219 0
M  V30 32 H -2.425005 1.820380 -1.487361 0
M  V30 33 H -1.443564 4.363145 -1.261955 0
M  V30 34 H -0.651359 3.647829 0.195245 0
M  V30 35 H -0.834819 2.190530 -2.417614 0
M  V30 36 H 0.322810 3.492019 -2.238391 0
M  V30 37 H 2.441349 1.529541 -1.084896 0
M  V30 38 H -3.015577 -2.243094 -1.699967 0
M  V30 39 H -5.276874 -2.692057 -0.773521 0
M  V30 40 H -6.134089 -1.472642 1.272928 0
M  V30 41 H -4.647556 0.127861 2.339737 0
M  V30 42 H 1.691548 -1.763537 2.951275 0
M  V30 43 H 3.727997 -2.908618 1.983348 0
M  V30 44 H 5.354789 -3.198286 0.372433 0
M  V30 45 H 6.428588 -2.579802 -1.786799 0
M  V30 46 H 5.472311 -0.708979 -3.113340 0
M  V30 47 H 3.522828 0.433829 -2.247780 0
M  V30 END ATOM
M  V30 BEGIN BOND
M  V30 1 1 1 2
M  V30 2 2 2 3
M  V30 3 1 3 4
M  V30 4 1 4 5
M  V30 5 1 5 6
M  V30 6 1 6 7
M  V30 7 2 7 8
M  V30 8 1 8 9
M  V30 9 2 9 10
M  V30 10 1 10 11
M  V30 11 1 11 12
M  V30 12 1 12 13
M  V30 13 1 13 14
M  V30 14 2 14 15
M  V30 15 1 15 16
M  V30 16 2 16 17
M  V30 17 1 17 18
M  V30 18 2 18 19
M  V30 19 1 10 20
M  V30 20 2 20 21
M  V30 21 1 21 22
M  V30 22 2 22 23
M  V30 23 1 23 24
M  V30 24 2 24 25
M  V30 25 1 25 26
M  V30 26 2 26 27
M  V30 27 1 19 2
M  V30 28 1 27 22
M  V30 29 9 3 12
M  V30 30 1 19 14
M  V30 31 9 7 12
M  V30 32 1 27 9
M  V30 33 1 1 28
M  V30 34 1 1 29
M  V30 35 1 1 30
M  V30 36 1 4 31
M  V30 37 1 4 32
M  V30 38 1 5 33
M  V30 39 1 5 34
M  V30 40 1 6 35
M  V30 41 1 6 36
M  V30 42 1 8 37
M  V30 43 1 15 38
M  V30 44 1 16 39
M  V30 45 1 17 40
M  V30 46 1 18 41
M  V30 47 1 20 42
M  V30 48 1 21 43
M  V30 49 1 23 44
M  V30 50 1 24 45
M  V30 51 1 25 46
M  V30 52 1 26 47
M  V30 END BOND
M  V30 END CTAB
M  END
