
     RDKit          3D

 32 35  0  0  0  0  0  0  0  0999 V2000
    2.6000   -2.1543   -1.5651 C   0  0  0  0  0  0  0  0  0  0  0  0
    3.7339   -1.3555   -1.6737 C   0  0  0  0  0  0  0  0  0  0  0  0
    3.6764   -0.0217   -1.2801 C   0  0  0  0  0  0  0  0  0  0  0  0
    2.4874    0.4971   -0.7579 C   0  0  0  0  0  0  0  0  0  0  0  0
    1.3521   -0.3052   -0.5719 C   0  0  0  0  0  0  0  0  0  0  0  0
    1.4177   -1.6294   -1.0308 C   0  0  0  0  0  0  0  0  0  0  0  0
    0.1244    0.2895    0.0338 C   0  0  0  0  0  0  0  0  0  0  0  0
    0.0802    1.6389    0.1602 C   0  0  0  0  0  0  0  0  0  0  0  0
    1.2741    2.4944   -0.1012 C   0  0  0  0  0  0  0  0  0  0  0  0
    1.2452    3.7139    0.0367 O   0  0  0  0  0  0  0  0  0  0  0  0
    2.4204    1.8611   -0.4765 N   0  0  0  0  0  0  0  0  0  0  0  0
   -1.1681    2.3845    0.5661 C   0  0  0  0  0  0  0  0  0  0  0  0
   -2.4262    1.6336    0.1255 C   0  0  0  0  0  0  0  0  0  0  0  0
   -2.3361    0.1971    0.5642 C   0  0  0  0  0  0  0  0  0  0  0  0
   -3.4821   -0.4841    0.9983 C   0  0  0  0  0  0  0  0  0  0  0  0
   -3.3799   -1.7851    1.4822 C   0  0  0  0  0  0  0  0  0  0  0  0
   -2.1345   -2.4014    1.5489 C   0  0  0  0  0  0  0  0  0  0  0  0
   -0.9938   -1.7304    1.0975 C   0  0  0  0  0  0  0  0  0  0  0  0
   -1.0788   -0.4417    0.5507 C   0  0  0  0  0  0  0  0  0  0  0  0
    2.6280   -3.1871   -1.9045 H   0  0  0  0  0  0  0  0  0  0  0  0
    4.6515   -1.7635   -2.0896 H   0  0  0  0  0  0  0  0  0  0  0  0
    4.5521    0.6087   -1.4057 H   0  0  0  0  0  0  0  0  0  0  0  0
    0.5449   -2.2757   -1.0064 H   0  0  0  0  0  0  0  0  0  0  0  0
    3.2156    2.4608   -0.6465 H   0  0  0  0  0  0  0  0  0  0  0  0
   -1.2029    3.3821    0.1135 H   0  0  0  0  0  0  0  0  0  0  0  0
   -1.1612    2.5210    1.6551 H   0  0  0  0  0  0  0  0  0  0  0  0
   -2.5361    1.6658   -0.9656 H   0  0  0  0  0  0  0  0  0  0  0  0
   -3.3049    2.1214    0.5634 H   0  0  0  0  0  0  0  0  0  0  0  0
   -4.4531    0.0051    0.9823 H   0  0  0  0  0  0  0  0  0  0  0  0
   -4.2666   -2.3080    1.8308 H   0  0  0  0  0  0  0  0  0  0  0  0
   -2.0459   -3.4038    1.9601 H   0  0  0  0  0  0  0  0  0  0  0  0
   -0.0338   -2.2280    1.2062 H   0  0  0  0  0  0  0  0  0  0  0  0
  1  2  2  0
  2  3  1  0
  3  4  2  0
  4  5  1  0
  5  6  2  0
  5  7  1  0
  7  8  2  0
  8  9  1  0
  9 10  2  0
  9 11  1  0
  8 12  1  0
 12 13  1  0
 13 14  1  0
 14 15  2  0
 15 16  1  0
 16 17  2  0
 17 18  1  0
 18 19  2  0
  6  1  1  0
 19  7  1  0
 11  4  1  0
 19 14  1  0
  1 20  1  0
  2 21  1  0
  3 22  1  0
  6 23  1  0
 11 24  1  0
 12 25  1  0
 12 26  1  0
 13 27  1  0
 13 28  1  0
 15 29  1  0
 16 30  1  0
 17 31  1  0
 18 32  1  0
M  END
