
     RDKit          3D

 64 65  0  0  0  0  0  0  0  0999 V2000
    3.3292    0.8211   -1.0655 C   0  0  0  0  0  0  0  0  0  0  0  0
    2.2522    0.2253   -0.2559 C   0  0  0  0  0  0  0  0  0  0  0  0
    0.9999    0.7030   -0.2787 N   0  0  0  0  0  0  0  0  0  0  0  0
    0.1895    0.0271    0.5183 N   0  0  0  0  0  0  0  0  0  0  0  0
   -1.5917    0.4070    0.7598 Pt  0  0  0  0  0  6  0  0  0  0  0  0
   -1.3326   -0.3735    2.5145 C   0  0  0  0  0  0  0  0  0  0  0  0
   -1.0450    2.0366    1.6051 C   0  0  0  0  0  0  0  0  0  0  0  0
   -3.2902    0.8928    1.3972 C   0  0  0  0  0  0  0  0  0  0  0  0
   -2.0788   -1.2803    0.1710 P   0  0  0  0  0  5  0  0  0  0  0  0
   -3.4614   -1.4533   -0.9064 C   0  0  0  0  0  0  0  0  0  0  0  0
   -0.9910   -2.0782   -0.9652 C   0  0  0  0  0  0  0  0  0  0  0  0
   -2.9605   -2.1782    1.4496 C   0  0  0  0  0  0  0  0  0  0  0  0
   -1.7376    1.5112   -0.7887 P   0  0  0  0  0  5  0  0  0  0  0  0
   -1.8322    3.2508   -0.3966 C   0  0  0  0  0  0  0  0  0  0  0  0
   -1.0007    0.8974   -2.2146 C   0  0  0  0  0  0  0  0  0  0  0  0
   -3.4160    1.5609   -1.4035 C   0  0  0  0  0  0  0  0  0  0  0  0
    0.9128   -0.9106    1.0763 N   0  0  0  0  0  0  0  0  0  0  0  0
    2.1964   -0.8162    0.6188 C   0  0  0  0  0  0  0  0  0  0  0  0
    3.1298   -1.8277    1.1761 C   0  0  0  0  0  0  0  0  0  0  0  0
    4.1879   -2.1208    0.1135 C   0  0  0  0  0  0  0  0  0  0  0  0
    5.4385   -1.3366    0.3360 C   0  0  0  0  0  0  0  0  0  0  0  0
    5.5902   -0.1260   -0.5469 C   0  0  0  0  0  0  0  0  0  0  0  0
    4.6207    0.9704   -0.2881 C   0  0  0  0  0  0  0  0  0  0  0  0
    2.9741    1.8579   -1.3354 H   0  0  0  0  0  0  0  0  0  0  0  0
    3.4986    0.2986   -2.0308 H   0  0  0  0  0  0  0  0  0  0  0  0
   -2.2182   -0.2877    3.1170 H   0  0  0  0  0  0  0  0  0  0  0  0
   -0.5356    0.2176    3.0662 H   0  0  0  0  0  0  0  0  0  0  0  0
   -0.8694   -1.3643    2.4022 H   0  0  0  0  0  0  0  0  0  0  0  0
   -0.1255    2.4272    1.1225 H   0  0  0  0  0  0  0  0  0  0  0  0
   -1.8743    2.7185    1.7177 H   0  0  0  0  0  0  0  0  0  0  0  0
   -0.6988    1.8727    2.6629 H   0  0  0  0  0  0  0  0  0  0  0  0
   -3.3791    0.7637    2.5216 H   0  0  0  0  0  0  0  0  0  0  0  0
   -4.0756    0.2908    1.0071 H   0  0  0  0  0  0  0  0  0  0  0  0
   -3.4392    2.0137    1.3290 H   0  0  0  0  0  0  0  0  0  0  0  0
   -1.1698   -2.0005    0.8993 H   0  0  0  0  0  0  0  0  0  0  0  0
   -3.9068   -2.4872   -0.8775 H   0  0  0  0  0  0  0  0  0  0  0  0
   -3.1688   -1.3065   -1.9327 H   0  0  0  0  0  0  0  0  0  0  0  0
   -4.2645   -0.8130   -0.6169 H   0  0  0  0  0  0  0  0  0  0  0  0
   -1.1076   -3.2089   -1.0882 H   0  0  0  0  0  0  0  0  0  0  0  0
    0.0757   -1.7630   -1.0378 H   0  0  0  0  0  0  0  0  0  0  0  0
   -1.2088   -1.8986   -2.0799 H   0  0  0  0  0  0  0  0  0  0  0  0
   -3.3460   -3.1924    1.1455 H   0  0  0  0  0  0  0  0  0  0  0  0
   -3.9578   -1.6306    1.5829 H   0  0  0  0  0  0  0  0  0  0  0  0
   -2.7227   -2.1395    2.5292 H   0  0  0  0  0  0  0  0  0  0  0  0
   -0.4645    1.9526   -0.7383 H   0  0  0  0  0  0  0  0  0  0  0  0
   -1.1963    3.8593    0.2199 H   0  0  0  0  0  0  0  0  0  0  0  0
   -1.9980    3.8481   -1.3493 H   0  0  0  0  0  0  0  0  0  0  0  0
   -2.8156    3.5141    0.1182 H   0  0  0  0  0  0  0  0  0  0  0  0
   -0.1308    0.2140   -2.2975 H   0  0  0  0  0  0  0  0  0  0  0  0
   -1.7237    0.2406   -2.8007 H   0  0  0  0  0  0  0  0  0  0  0  0
   -0.8799    1.7013   -3.0299 H   0  0  0  0  0  0  0  0  0  0  0  0
   -4.0394    1.5736   -0.5338 H   0  0  0  0  0  0  0  0  0  0  0  0
   -3.6944    2.5209   -1.9639 H   0  0  0  0  0  0  0  0  0  0  0  0
   -3.6073    0.8596   -2.1792 H   0  0  0  0  0  0  0  0  0  0  0  0
    2.5922   -2.7563    1.4186 H   0  0  0  0  0  0  0  0  0  0  0  0
    3.6522   -1.3570    2.0137 H   0  0  0  0  0  0  0  0  0  0  0  0
    4.3747   -3.2113    0.0482 H   0  0  0  0  0  0  0  0  0  0  0  0
    3.7888   -1.8411   -0.9015 H   0  0  0  0  0  0  0  0  0  0  0  0
    5.5647   -1.1072    1.3997 H   0  0  0  0  0  0  0  0  0  0  0  0
    6.2934   -2.0144    0.0523 H   0  0  0  0  0  0  0  0  0  0  0  0
    5.6359   -0.4261   -1.5958 H   0  0  0  0  0  0  0  0  0  0  0  0
    6.6112    0.2828   -0.2941 H   0  0  0  0  0  0  0  0  0  0  0  0
    4.3581    1.0260    0.7879 H   0  0  0  0  0  0  0  0  0  0  0  0
    5.0896    1.9494   -0.5448 H   0  0  0  0  0  0  0  0  0  0  0  0
  1  2  1  0
  2  3  2  0
  3  4  1  0
  4  5  1  0
  5  6  1  0
  5  7  1  0
  5  8  1  0
  5  9  1  0
  9 10  1  0
  9 11  1  0
  9 12  1  0
  5 13  1  0
 13 14  1  0
 13 15  1  0
 13 16  1  0
  4 17  1  0
 17 18  2  0
 18 19  1  0
 19 20  1  0
 20 21  1  0
 21 22  1  0
 22 23  1  0
 23  1  1  0
 18  2  1  0
  1 24  1  0
  1 25  1  0
  6 26  1  0
  6 27  1  0
  6 28  1  0
  7 29  1  0
  7 30  1  0
  7 31  1  0
  8 32  1  0
  8 33  1  0
  8 34  1  0
  9 35  1  0
 10 36  1  0
 10 37  1  0
 10 38  1  0
 11 39  1  0
 11 40  1  0
 11 41  1  0
 12 42  1  0
 12 43  1  0
 12 44  1  0
 13 45  1  0
 14 46  1  0
 14 47  1  0
 14 48  1  0
 15 49  1  0
 15 50  1  0
 15 51  1  0
 16 52  1  0
 16 53  1  0
 16 54  1  0
 19 55  1  0
 19 56  1  0
 20 57  1  0
 20 58  1  0
 21 59  1  0
 21 60  1  0
 22 61  1  0
 22 62  1  0
 23 63  1  0
 23 64  1  0
M  END
