
  --CCDC--092525    3D                              

 44 43  0  0  0  0  0  0  0  0999 V2000
    0.7911    0.1361   -0.3687 H      0
    1.0030    1.1638   -0.0823 C      0
    1.1380    1.7078   -1.0148 H      0
    1.9597    1.1953    0.4306 H      0
   -0.3539    1.9424    0.8492 P      0
   -1.9499    2.6358    0.2811 C      0
   -2.6677    1.8652    0.0075 H      0
   -2.4256    3.2858    1.0114 H      0
   -1.7826    3.2329   -0.6129 H      0
    0.5869    3.4479    0.4338 C      0
    0.4438    3.6998   -0.6150 H      0
    1.6522    3.2894    0.5894 H      0
    0.2871    4.3123    1.0213 H      0
   -0.3797    1.3635    2.4184 O      0
    0.3439    0.3289    1.9828 N      0
    0.0045   -0.8477    1.6433 N      3
   -0.3754   -1.8445    1.2297 N      5
   -0.9474    2.5954    2.9135 C      0
   -1.9672    2.5853    3.2705 H      0
   -0.9250    3.4080    2.2118 H      0
   -0.3930    3.0291    3.7344 H      0
    0.8818    1.9601    2.7290 C      0
    0.9879    2.9909    2.4233 H      0
    1.6911    1.3898    2.2903 H      0
    1.1679    2.0021    3.7619 H      0
   -1.6511    0.7404    2.1036 C      0
   -2.5484    1.3191    2.2947 H      0
   -1.8351   -0.2234    2.5480 H      0
   -1.7691    0.4439    1.0739 H      0
   -0.4972    0.6540    3.9304 P      0
   -2.1820    0.5640    4.6407 C      0
   -2.8695   -0.1044    4.1269 H      0
   -2.6521    1.5410    4.7111 H      0
   -2.1139    0.1845    5.6578 H      0
    1.0130   -0.3070    4.2916 C      0
    1.0664   -1.2411    3.7392 H      0
    1.0093   -0.5802    5.3447 H      0
    1.9384    0.2369    4.1181 H      0
   -0.2429    1.5975    5.4731 C      0
   -0.9210    2.4467    5.5256 H      0
    0.7721    1.9642    5.6052 H      0
   -0.4539    0.9631    6.3312 H      0
   -0.7598    1.0292   -0.1341 H      0
   -0.7964   -0.7153    3.8984 H      0
  1  2  1
  2  3  1
  2  4  1
  2  5  1
  5  6  1
  6  7  1
  6  8  1
  6  9  1
  5 10  1
 10 11  1
 10 12  1
 10 13  1
  5 14  1
 14 15  1
 15 16  2
 16 17  2
 14 18  1
 18 19  1
 18 20  1
 18 21  1
 14 22  1
 22 23  1
 22 24  1
 22 25  1
 14 26  1
 26 27  1
 26 28  1
 26 29  1
 14 30  1
 30 31  1
 31 32  1
 31 33  1
 31 34  1
 30 35  1
 35 36  1
 35 37  1
 35 38  1
 30 39  1
 39 40  1
 39 41  1
 39 42  1
  5 43  1
 30 44  1
M  CHG  2  16   1  17  -1
M  END
$$$$
