
 OpenBabel09252513263D

 71 77  0  0  0  0  0  0  0  0999 V2000
    1.0606    0.0483    0.0632 C   0  0  0  0  0  0  0  0  0  0  0  0
    0.4572    1.5187   -0.8029 S   0  0  0  0  0  0  0  0  0  0  0  0
   -1.3528    1.5187   -0.8029 C   0  0  0  0  0  0  0  0  0  0  0  0
    0.9674    2.7745   -0.0924 O   0  0  0  0  0  0  0  0  0  0  0  0
    0.3344    5.1462   -1.0084 U   0  3  0  0  0  0  0  0  0  0  0  0
   -1.2790    7.1890   -1.3053 O   0  0  0  0  0  0  0  0  0  0  0  0
   -2.6552    6.9727   -1.5802 C   0  0  0  0  0  0  0  0  0  0  0  0
   -3.4379    7.9636   -1.7243 O   0  0  0  0  0  0  0  0  0  0  0  0
    4.8964    4.9895    3.5939 C   0  0  0  0  0  0  0  0  0  0  0  0
    4.7521    5.1158    2.1364 N   0  0  0  0  0  0  0  0  0  0  0  0
    5.0051    6.4346    1.4051 C   0  0  0  0  0  0  0  0  0  0  0  0
    3.8283    7.3843    1.6353 C   0  0  0  0  0  0  0  0  0  0  0  0
    3.2543    7.8262    0.2886 N   0  0  0  0  0  4  0  0  0  0  0  0
    2.1430    6.8649   -0.1381 C   0  0  0  0  0  0  0  0  0  0  0  0
    2.4800    6.2680   -1.5069 C   0  0  0  0  0  0  0  0  0  0  0  0
    1.5853    5.0584   -1.7806 N   0  0  0  0  0  0  0  0  0  0  0  0
    2.3187    3.7501   -1.4821 C   0  0  0  0  0  0  0  0  0  0  0  0
    2.9778    3.8145   -0.1038 C   0  0  0  0  0  0  0  0  0  0  0  0
    3.9324    2.6293    0.0584 N   0  0  0  0  0  0  0  0  0  0  0  0
    4.6527    2.7268    1.4045 C   0  0  0  0  0  0  0  0  0  0  0  0
    5.5158    3.9886    1.4389 C   0  0  0  0  0  0  0  0  0  0  0  0
    2.5709    2.3569   -0.4555 C   0  0  0  0  0  0  0  0  0  0  0  0
    2.2641    2.3173   -1.9437 C   0  0  0  0  0  0  0  0  0  0  0  0
    2.7810    1.4158   -2.6753 O   0  0  0  0  0  0  0  0  0  0  0  0
    1.4001    3.2877   -2.5166 O   0  0  0  0  0  0  0  0  0  0  0  0
    1.1115    5.0731   -3.2226 C   0  0  0  0  0  0  0  0  0  0  0  0
   -0.2275    5.2071   -3.1655 C   0  0  0  0  0  0  0  0  0  0  0  0
   -0.9812    5.2865   -4.1857 O   0  0  0  0  0  0  0  0  0  0  0  0
   -0.6659    5.2464   -1.9024 O   0  0  0  0  0  0  0  0  0  0  0  0
    2.8333    5.7534   -0.5068 O   0  0  0  0  0  0  0  0  0  0  0  0
    3.3528    7.1621   -0.8032 S   0  0  0  0  0  0  0  0  0  0  0  0
    2.4079    8.3686    0.1599 C   0  0  0  0  0  0  0  0  0  0  0  0
    5.1025    7.2672   -0.3520 C   0  0  0  0  0  0  0  0  0  0  0  0
    0.7039   -0.8297   -0.4335 H   0  0  0  0  0  0  0  0  0  0  0  0
    0.7039    0.0572    1.0720 H   0  0  0  0  0  0  0  0  0  0  0  0
    2.1306    0.0483    0.0632 H   0  0  0  0  0  0  0  0  0  0  0  0
   -1.7094    1.5275    0.2058 H   0  0  0  0  0  0  0  0  0  0  0  0
   -1.7094    2.3879   -1.3150 H   0  0  0  0  0  0  0  0  0  0  0  0
   -1.7094    0.6406   -1.2997 H   0  0  0  0  0  0  0  0  0  0  0  0
    4.4815    4.0565    3.9138 H   0  0  0  0  0  0  0  0  0  0  0  0
    5.9336    5.0266    3.8541 H   0  0  0  0  0  0  0  0  0  0  0  0
    5.6816    4.7471    1.9353 H   0  0  0  0  0  0  0  0  0  0  0  0
    5.9013    6.8825    1.7808 H   0  0  0  0  0  0  0  0  0  0  0  0
    5.1105    6.2459    0.3571 H   0  0  0  0  0  0  0  0  0  0  0  0
    4.1657    8.2433    2.1767 H   0  0  0  0  0  0  0  0  0  0  0  0
    3.0697    6.8813    2.1978 H   0  0  0  0  0  0  0  0  0  0  0  0
    3.8176    8.6621    0.1328 H   0  0  0  0  0  0  0  0  0  0  0  0
    1.2166    7.3968   -0.2001 H   0  0  0  0  0  0  0  0  0  0  0  0
    2.0561    6.0784    0.5821 H   0  0  0  0  0  0  0  0  0  0  0  0
    3.5041    5.9580   -1.5139 H   0  0  0  0  0  0  0  0  0  0  0  0
    2.3208    7.0061   -2.2650 H   0  0  0  0  0  0  0  0  0  0  0  0
    2.3657    5.3109   -2.3869 H   0  0  0  0  0  0  0  0  0  0  0  0
    3.0752    3.5980   -2.2232 H   0  0  0  0  0  0  0  0  0  0  0  0
    1.6190    2.9408   -1.5014 H   0  0  0  0  0  0  0  0  0  0  0  0
    2.2246    3.7735    0.6551 H   0  0  0  0  0  0  0  0  0  0  0  0
    3.5254    4.7292   -0.0123 H   0  0  0  0  0  0  0  0  0  0  0  0
    4.4791    1.8258   -0.2513 H   0  0  0  0  0  0  0  0  0  0  0  0
    5.2770    1.8676    1.5347 H   0  0  0  0  0  0  0  0  0  0  0  0
    3.9297    2.7692    2.1922 H   0  0  0  0  0  0  0  0  0  0  0  0
    5.7502    4.2854    0.4379 H   0  0  0  0  0  0  0  0  0  0  0  0
    6.4199    3.7869    1.9744 H   0  0  0  0  0  0  0  0  0  0  0  0
    3.6240    2.4795   -0.3115 H   0  0  0  0  0  0  0  0  0  0  0  0
    2.0515    3.1773   -0.0060 H   0  0  0  0  0  0  0  0  0  0  0  0
    1.5643    5.8673   -3.7786 H   0  0  0  0  0  0  0  0  0  0  0  0
    1.3743    4.1580   -3.7109 H   0  0  0  0  0  0  0  0  0  0  0  0
    2.5205    8.1591    1.2031 H   0  0  0  0  0  0  0  0  0  0  0  0
    2.7711    9.3535   -0.0473 H   0  0  0  0  0  0  0  0  0  0  0  0
    1.3736    8.3065   -0.1068 H   0  0  0  0  0  0  0  0  0  0  0  0
    5.2151    7.0577    0.6912 H   0  0  0  0  0  0  0  0  0  0  0  0
    5.6611    6.5540   -0.9214 H   0  0  0  0  0  0  0  0  0  0  0  0
    5.4658    8.2521   -0.5592 H   0  0  0  0  0  0  0  0  0  0  0  0
  1  2  1  0  0  0  0
  1 34  1  0  0  0  0
  1 35  1  0  0  0  0
  1 36  1  0  0  0  0
  2  3  1  0  0  0  0
  2  4  2  0  0  0  0
  3 37  1  0  0  0  0
  3 38  1  0  0  0  0
  3 39  1  0  0  0  0
  4  5  1  0  0  0  0
  5  6  1  0  0  0  0
  5 10  1  0  0  0  0
  5 13  1  0  0  0  0
  5 16  1  0  0  0  0
  5 19  1  0  0  0  0
  5 25  1  0  0  0  0
  5 29  1  0  0  0  0
  5 30  1  0  0  0  0
  6  7  1  0  0  0  0
  7  8  2  0  0  0  0
  7  9  1  0  0  0  0
  9 10  1  0  0  0  0
  9 40  1  0  0  0  0
  9 41  1  0  0  0  0
 10 11  1  0  0  0  0
 10 21  1  0  0  0  0
 10 42  1  0  0  0  0
 11 12  1  0  0  0  0
 11 43  1  0  0  0  0
 11 44  1  0  0  0  0
 12 13  1  0  0  0  0
 12 45  1  0  0  0  0
 12 46  1  0  0  0  0
 13 14  1  0  0  0  0
 13 47  1  0  0  0  0
 14 15  1  0  0  0  0
 14 48  1  0  0  0  0
 14 49  1  0  0  0  0
 15 16  1  0  0  0  0
 15 50  1  0  0  0  0
 15 51  1  0  0  0  0
 16 17  1  0  0  0  0
 16 26  1  0  0  0  0
 16 52  1  0  0  0  0
 17 18  1  0  0  0  0
 17 53  1  0  0  0  0
 17 54  1  0  0  0  0
 18 19  1  0  0  0  0
 18 55  1  0  0  0  0
 18 56  1  0  0  0  0
 19 20  1  0  0  0  0
 19 22  1  0  0  0  0
 19 57  1  0  0  0  0
 20 21  1  0  0  0  0
 20 58  1  0  0  0  0
 20 59  1  0  0  0  0
 21 60  1  0  0  0  0
 21 61  1  0  0  0  0
 22 23  1  0  0  0  0
 22 62  1  0  0  0  0
 22 63  1  0  0  0  0
 23 24  2  0  0  0  0
 23 25  1  0  0  0  0
 26 27  1  0  0  0  0
 26 64  1  0  0  0  0
 26 65  1  0  0  0  0
 27 28  2  0  0  0  0
 27 29  1  0  0  0  0
 30 31  2  0  0  0  0
 31 32  1  0  0  0  0
 31 33  1  0  0  0  0
 32 66  1  0  0  0  0
 32 67  1  0  0  0  0
 32 68  1  0  0  0  0
 33 69  1  0  0  0  0
 33 70  1  0  0  0  0
 33 71  1  0  0  0  0
M  CHG  1   5   1
M  END
$$$$
