
 OpenBabel09252513463D

 42 41  0  0  0  0  0  0  0  0999 V2000
    0.9255   -0.0117    0.0657 C   0  0  0  0  0  0  0  0  0  0  0  0
    0.2189    1.8755    0.7242 Pt  0  0  0  0  0  0  0  0  0  0  0  0
    1.9498    2.8025   -0.0750 C   0  0  0  0  0  0  0  0  0  0  0  0
   -0.7805    2.1467   -1.1257 C   0  0  0  0  0  0  0  0  0  0  0  0
   -0.4711    3.7181    1.3671 N   0  0  0  0  0  0  0  0  0  0  0  0
    0.2157    4.7651    1.1496 N   0  3  0  0  0  0  0  0  0  0  0  0
    0.9025    5.8120    0.9320 N   0  5  0  0  0  0  0  0  0  0  0  0
   -1.7652    0.8129    1.6403 P   0  0  0  0  0  4  0  0  0  0  0  0
   -1.3586   -0.8943    2.1589 C   0  0  0  0  0  0  0  0  0  0  0  0
   -2.3547    1.7658    3.0871 C   0  0  0  0  0  0  0  0  0  0  0  0
   -3.0766    0.7669    0.3647 C   0  0  0  0  0  0  0  0  0  0  0  0
    1.3644    1.5646    2.8446 P   0  0  0  0  0  4  0  0  0  0  0  0
    0.7195    0.0652    3.6722 C   0  0  0  0  0  0  0  0  0  0  0  0
    3.1595    1.3720    2.5456 C   0  0  0  0  0  0  0  0  0  0  0  0
    1.0768    3.0224    3.9127 C   0  0  0  0  0  0  0  0  0  0  0  0
    0.5689   -0.2001   -0.9253 H   0  0  0  0  0  0  0  0  0  0  0  0
    0.5689   -0.7758    0.7244 H   0  0  0  0  0  0  0  0  0  0  0  0
    1.9955   -0.0117    0.0657 H   0  0  0  0  0  0  0  0  0  0  0  0
    2.2945    2.2453   -0.9210 H   0  0  0  0  0  0  0  0  0  0  0  0
    1.7120    3.8007   -0.3783 H   0  0  0  0  0  0  0  0  0  0  0  0
    2.7166    2.8294    0.6708 H   0  0  0  0  0  0  0  0  0  0  0  0
   -1.8301    2.2593   -0.9509 H   0  0  0  0  0  0  0  0  0  0  0  0
   -0.4035    3.0234   -1.6096 H   0  0  0  0  0  0  0  0  0  0  0  0
   -0.6124    1.2943   -1.7503 H   0  0  0  0  0  0  0  0  0  0  0  0
   -0.5918   -0.8675    2.9047 H   0  0  0  0  0  0  0  0  0  0  0  0
   -2.2322   -1.3622    2.5623 H   0  0  0  0  0  0  0  0  0  0  0  0
   -1.0139   -1.4515    1.3129 H   0  0  0  0  0  0  0  0  0  0  0  0
   -2.5925    2.7640    2.7838 H   0  0  0  0  0  0  0  0  0  0  0  0
   -3.2283    1.2979    3.4904 H   0  0  0  0  0  0  0  0  0  0  0  0
   -1.5879    1.7927    3.8329 H   0  0  0  0  0  0  0  0  0  0  0  0
   -3.3144    1.7651    0.0615 H   0  0  0  0  0  0  0  0  0  0  0  0
   -2.7320    0.2097   -0.4813 H   0  0  0  0  0  0  0  0  0  0  0  0
   -3.9503    0.2990    0.7681 H   0  0  0  0  0  0  0  0  0  0  0  0
    0.8876   -0.7872    3.0476 H   0  0  0  0  0  0  0  0  0  0  0  0
    1.2239   -0.0717    4.6059 H   0  0  0  0  0  0  0  0  0  0  0  0
   -0.3301    0.1778    3.8470 H   0  0  0  0  0  0  0  0  0  0  0  0
    3.5366    2.2486    2.0617 H   0  0  0  0  0  0  0  0  0  0  0  0
    3.6639    1.2351    3.4793 H   0  0  0  0  0  0  0  0  0  0  0  0
    3.3276    0.5196    1.9211 H   0  0  0  0  0  0  0  0  0  0  0  0
    1.4539    3.8991    3.4288 H   0  0  0  0  0  0  0  0  0  0  0  0
    0.0272    3.1350    4.0875 H   0  0  0  0  0  0  0  0  0  0  0  0
    1.5812    2.8855    4.8464 H   0  0  0  0  0  0  0  0  0  0  0  0
  1  2  1  0  0  0  0
  1 16  1  0  0  0  0
  1 17  1  0  0  0  0
  1 18  1  0  0  0  0
  2  3  1  0  0  0  0
  2  4  1  0  0  0  0
  2  5  1  0  0  0  0
  2  8  1  0  0  0  0
  2 12  1  0  0  0  0
  3 19  1  0  0  0  0
  3 20  1  0  0  0  0
  3 21  1  0  0  0  0
  4 22  1  0  0  0  0
  4 23  1  0  0  0  0
  4 24  1  0  0  0  0
  5  6  2  0  0  0  0
  6  7  2  0  0  0  0
  8  9  1  0  0  0  0
  8 10  1  0  0  0  0
  8 11  1  0  0  0  0
  9 25  1  0  0  0  0
  9 26  1  0  0  0  0
  9 27  1  0  0  0  0
 10 28  1  0  0  0  0
 10 29  1  0  0  0  0
 10 30  1  0  0  0  0
 11 31  1  0  0  0  0
 11 32  1  0  0  0  0
 11 33  1  0  0  0  0
 12 13  1  0  0  0  0
 12 14  1  0  0  0  0
 12 15  1  0  0  0  0
 13 34  1  0  0  0  0
 13 35  1  0  0  0  0
 13 36  1  0  0  0  0
 14 37  1  0  0  0  0
 14 38  1  0  0  0  0
 14 39  1  0  0  0  0
 15 40  1  0  0  0  0
 15 41  1  0  0  0  0
 15 42  1  0  0  0  0
M  CHG  2   6   1   7  -1
M  END
$$$$
