
 OpenBabel09252512593D

 42 41  0  0  0  0  0  0  0  0999 V2000
    1.0428    0.0456   -0.0780 C   0  0  0  0  0  0  0  0  0  0  0  0
    0.3361    0.1435   -2.0744 Pt  0  0  0  0  0  0  0  0  0  0  0  0
    2.0671   -0.8853   -2.7375 C   0  0  0  0  0  0  0  0  0  0  0  0
   -0.6633   -1.7076   -1.8113 C   0  0  0  0  0  0  0  0  0  0  0  0
   -0.3539    0.2390   -4.0237 N   0  0  0  0  0  0  0  0  0  0  0  0
    0.3329   -0.2658   -4.9663 N   0  3  0  0  0  0  0  0  0  0  0  0
    1.0198   -0.7706   -5.9090 N   0  5  0  0  0  0  0  0  0  0  0  0
   -1.6480    1.3227   -1.3143 P   0  0  0  0  0  4  0  0  0  0  0  0
   -1.2413    2.3030    0.1765 C   0  0  0  0  0  0  0  0  0  0  0  0
   -2.2374    2.4409   -2.6375 C   0  0  0  0  0  0  0  0  0  0  0  0
   -2.9594    0.1122   -0.9094 C   0  0  0  0  0  0  0  0  0  0  0  0
    1.4816    2.2652   -2.3759 P   0  0  0  0  0  4  0  0  0  0  0  0
    0.8367    3.4831   -1.1718 C   0  0  0  0  0  0  0  0  0  0  0  0
    3.2767    2.0329   -2.1066 C   0  0  0  0  0  0  0  0  0  0  0  0
    1.1941    2.8774   -4.0763 C   0  0  0  0  0  0  0  0  0  0  0  0
    0.6861   -0.8517    0.3830 H   0  0  0  0  0  0  0  0  0  0  0  0
    0.6861    0.8936    0.4685 H   0  0  0  0  0  0  0  0  0  0  0  0
    2.1128    0.0456   -0.0780 H   0  0  0  0  0  0  0  0  0  0  0  0
    2.4117   -1.5391   -1.9638 H   0  0  0  0  0  0  0  0  0  0  0  0
    1.8293   -1.4585   -3.6092 H   0  0  0  0  0  0  0  0  0  0  0  0
    2.8338   -0.1775   -2.9743 H   0  0  0  0  0  0  0  0  0  0  0  0
   -1.7129   -1.5718   -1.9688 H   0  0  0  0  0  0  0  0  0  0  0  0
   -0.2862   -2.4197   -2.5153 H   0  0  0  0  0  0  0  0  0  0  0  0
   -0.4951   -2.0656   -0.8171 H   0  0  0  0  0  0  0  0  0  0  0  0
   -0.4745    3.0107   -0.0602 H   0  0  0  0  0  0  0  0  0  0  0  0
   -2.1150    2.8222    0.5112 H   0  0  0  0  0  0  0  0  0  0  0  0
   -0.8967    1.6492    0.9503 H   0  0  0  0  0  0  0  0  0  0  0  0
   -2.4752    1.8677   -3.5092 H   0  0  0  0  0  0  0  0  0  0  0  0
   -3.1111    2.9601   -2.3028 H   0  0  0  0  0  0  0  0  0  0  0  0
   -1.4707    3.1486   -2.8743 H   0  0  0  0  0  0  0  0  0  0  0  0
   -3.1972   -0.4610   -1.7811 H   0  0  0  0  0  0  0  0  0  0  0  0
   -2.6147   -0.5416   -0.1357 H   0  0  0  0  0  0  0  0  0  0  0  0
   -3.8330    0.6315   -0.5747 H   0  0  0  0  0  0  0  0  0  0  0  0
    1.0049    3.1251   -0.1776 H   0  0  0  0  0  0  0  0  0  0  0  0
    1.3411    4.4174   -1.3046 H   0  0  0  0  0  0  0  0  0  0  0  0
   -0.2129    3.6189   -1.3293 H   0  0  0  0  0  0  0  0  0  0  0  0
    3.6538    1.3208   -2.8106 H   0  0  0  0  0  0  0  0  0  0  0  0
    3.7811    2.9672   -2.2394 H   0  0  0  0  0  0  0  0  0  0  0  0
    3.4449    1.6750   -1.1124 H   0  0  0  0  0  0  0  0  0  0  0  0
    1.5711    2.1653   -4.7803 H   0  0  0  0  0  0  0  0  0  0  0  0
    0.1444    3.0133   -4.2337 H   0  0  0  0  0  0  0  0  0  0  0  0
    1.6985    3.8117   -4.2091 H   0  0  0  0  0  0  0  0  0  0  0  0
  1  2  1  0  0  0  0
  1 16  1  0  0  0  0
  1 17  1  0  0  0  0
  1 18  1  0  0  0  0
  2  3  1  0  0  0  0
  2  4  1  0  0  0  0
  2  5  1  0  0  0  0
  2  8  1  0  0  0  0
  2 12  1  0  0  0  0
  3 19  1  0  0  0  0
  3 20  1  0  0  0  0
  3 21  1  0  0  0  0
  4 22  1  0  0  0  0
  4 23  1  0  0  0  0
  4 24  1  0  0  0  0
  5  6  2  0  0  0  0
  6  7  2  0  0  0  0
  8  9  1  0  0  0  0
  8 10  1  0  0  0  0
  8 11  1  0  0  0  0
  9 25  1  0  0  0  0
  9 26  1  0  0  0  0
  9 27  1  0  0  0  0
 10 28  1  0  0  0  0
 10 29  1  0  0  0  0
 10 30  1  0  0  0  0
 11 31  1  0  0  0  0
 11 32  1  0  0  0  0
 11 33  1  0  0  0  0
 12 13  1  0  0  0  0
 12 14  1  0  0  0  0
 12 15  1  0  0  0  0
 13 34  1  0  0  0  0
 13 35  1  0  0  0  0
 13 36  1  0  0  0  0
 14 37  1  0  0  0  0
 14 38  1  0  0  0  0
 14 39  1  0  0  0  0
 15 40  1  0  0  0  0
 15 41  1  0  0  0  0
 15 42  1  0  0  0  0
M  CHG  2   6   1   7  -1
M  END
$$$$
