
 OpenBabel09252517463D

 36 38  0  0  1  0  0  0  0  0999 V2000
   11.9717   -0.9906    1.4683 H   0  0  0  0  0  0  0  0  0  0  0  0
   11.1768   -1.6705    1.2429 C   0  0  0  0  0  0  0  0  0  0  0  0
   11.3997   -2.6681    0.9265 H   0  0  0  0  0  0  0  0  0  0  0  0
    9.8829   -1.2666    1.3585 C   0  0  0  0  0  0  0  0  0  0  0  0
    9.6601   -0.2691    1.6749 H   0  0  0  0  0  0  0  0  0  0  0  0
    8.7538   -2.2325    1.0383 C   0  0  1  0  0  0  0  0  0  0  0  0
    8.8351   -2.5513    0.0201 H   0  0  0  0  0  0  0  0  0  0  0  0
    8.8448   -3.4406    1.9563 C   0  0  0  0  0  0  0  0  0  0  0  0
    8.7635   -3.1218    2.9744 H   0  0  0  0  0  0  0  0  0  0  0  0
    8.0499   -4.1205    1.7308 H   0  0  0  0  0  0  0  0  0  0  0  0
    9.7850   -3.9299    1.8097 H   0  0  0  0  0  0  0  0  0  0  0  0
    7.4181   -1.5374    1.2465 C   0  0  1  0  0  0  0  0  0  0  0  0
    7.3368   -1.2186    2.2647 H   0  0  0  0  0  0  0  0  0  0  0  0
    7.3301   -0.3691    0.3587 N   0  0  0  0  0  0  0  0  0  0  0  0
    8.1826    0.5685    0.4559 N   0  0  0  0  0  4  0  0  0  0  0  0
    9.0351    1.5061    0.5531 N   0  0  0  0  0  0  0  0  0  0  0  0
    6.2726   -2.4857    0.9321 C   0  0  2  0  0  0  0  0  0  0  0  0
    5.2026   -2.4857    0.9321 H   0  0  0  0  0  0  0  0  0  0  0  0
    6.0714   -3.4639    1.7991 C   0  0  1  0  0  0  0  0  0  0  0  0
    6.9432   -4.0354    2.0405 H   0  0  0  0  0  0  0  0  0  0  0  0
    4.6077   -3.7199    1.7912 C   0  0  1  0  0  0  0  0  0  0  0  0
    5.2562   -4.4418    2.2420 H   0  0  0  0  0  0  0  0  0  0  0  0
    4.0963   -2.8702    0.9162 C   0  0  2  0  0  0  0  0  0  0  0  0
    3.4002   -3.3965    1.5354 H   0  0  0  0  0  0  0  0  0  0  0  0
    4.2889   -4.2525    1.5184 C   0  0  0  0  0  0  0  0  0  0  0  0
    4.7491   -4.1350    2.4772 H   0  0  0  0  0  0  0  0  0  0  0  0
    3.3715   -4.7925    1.6268 H   0  0  0  0  0  0  0  0  0  0  0  0
    4.9468   -4.7935    0.8708 H   0  0  0  0  0  0  0  0  0  0  0  0
    5.0908   -2.1265    0.4052 Fe  0  0  0  0  0  0  0  0  0  0  0  0
    6.2452   -1.7196   -1.2765 C   0  0  0  0  0  0  0  0  0  0  0  0
    6.8978   -1.4776   -2.2762 O   0  0  0  0  0  0  0  0  0  0  0  0
    6.7134   -1.3061   -0.6050 C   0  0  0  0  0  0  0  0  0  0  0  0
    7.6737   -0.8336   -1.1867 O   0  0  0  0  0  0  0  0  0  0  0  0
    6.4132   -1.8603   -1.1782 C   0  0  0  0  0  0  0  0  0  0  0  0
    7.1829   -1.7037   -2.1091 O   0  0  0  0  0  0  0  0  0  0  0  0
    9.9948    1.3570    0.2416 H   0  0  0  0  0  0  0  0  0  0  0  0
  1  2  1  0  0  0  0
  2  3  1  0  0  0  0
  2  4  2  0  0  0  0
  4  5  1  0  0  0  0
  4  6  1  0  0  0  0
  6  7  1  6  0  0  0
  6  8  1  0  0  0  0
  6 12  1  0  0  0  0
  8  9  1  0  0  0  0
  8 10  1  0  0  0  0
  8 11  1  0  0  0  0
 12 13  1  1  0  0  0
 12 14  1  0  0  0  0
 14 15  2  0  0  0  0
 15 16  2  0  0  0  0
 16 36  1  0  0  0  0
 17 19  2  0  0  0  0
 17 29  1  0  0  0  0
 17 18  1  1  0  0  0
 17 12  1  0  0  0  0
 19 21  1  0  0  0  0
 19 29  1  0  0  0  0
 19 20  1  6  0  0  0
 21 23  2  0  0  0  0
 21 29  1  0  0  0  0
 21 22  1  6  0  0  0
 23 29  1  0  0  0  0
 23 25  1  0  0  0  0
 23 24  1  1  0  0  0
 25 26  1  0  0  0  0
 25 27  1  0  0  0  0
 25 28  1  0  0  0  0
 29 30  1  0  0  0  0
 29 32  1  0  0  0  0
 29 34  1  0  0  0  0
 30 31  3  0  0  0  0
 32 33  3  0  0  0  0
 34 35  3  0  0  0  0
M  END
$$$$
