
     RDKit          3D

 26 26  0  0  0  0  0  0  0  0999 V2000
    1.1471   -0.8734   -0.0635 C   0  0  0  0  0  0  0  0  0  0  0  0
    2.4867   -1.2428    0.1044 C   0  0  0  0  0  0  0  0  0  0  0  0
    3.5002   -0.3063   -0.1408 C   0  0  0  0  0  0  0  0  0  0  0  0
    4.9068   -0.6920    0.0348 N   0  0  0  0  0  4  0  0  0  0  0  0
    5.1439   -1.8522    0.3996 O   0  0  0  0  0  1  0  0  0  0  0  0
    5.7719    0.1654   -0.1921 O   0  0  0  0  0  0  0  0  0  0  0  0
    3.1820    0.9945   -0.5521 C   0  0  0  0  0  0  0  0  0  0  0  0
    1.8408    1.3557   -0.7175 C   0  0  0  0  0  0  0  0  0  0  0  0
    0.8163    0.4270   -0.4752 C   0  0  0  0  0  0  0  0  0  0  0  0
   -0.5925    0.8706   -0.6683 C   0  0  0  0  0  0  0  0  0  0  0  0
   -0.8969    1.9968   -1.0257 O   0  0  0  0  0  0  0  0  0  0  0  0
   -1.4505   -0.1413   -0.3916 O   0  0  0  0  0  0  0  0  0  0  0  0
   -2.8518    0.1582   -0.5370 C   0  0  0  0  0  0  0  0  0  0  0  0
   -3.5683   -1.1623   -0.7915 C   0  0  0  0  0  0  0  0  0  0  0  0
   -3.3676    0.8153    0.7382 C   0  0  0  0  0  0  0  0  0  0  0  0
    0.3715   -1.6116    0.1308 H   0  0  0  0  0  0  0  0  0  0  0  0
    2.7195   -2.2570    0.4245 H   0  0  0  0  0  0  0  0  0  0  0  0
    3.9571    1.7336   -0.7466 H   0  0  0  0  0  0  0  0  0  0  0  0
    1.5965    2.3684   -1.0375 H   0  0  0  0  0  0  0  0  0  0  0  0
   -3.0165    0.8150   -1.3998 H   0  0  0  0  0  0  0  0  0  0  0  0
   -4.6456   -1.0139   -0.9130 H   0  0  0  0  0  0  0  0  0  0  0  0
   -3.4002   -1.8665    0.0309 H   0  0  0  0  0  0  0  0  0  0  0  0
   -3.1773   -1.6384   -1.6973 H   0  0  0  0  0  0  0  0  0  0  0  0
   -3.1742    0.1815    1.6109 H   0  0  0  0  0  0  0  0  0  0  0  0
   -4.4427    1.0099    0.6766 H   0  0  0  0  0  0  0  0  0  0  0  0
   -2.8561    1.7656    0.9221 H   0  0  0  0  0  0  0  0  0  0  0  0
  1  2  2  0
  2  3  1  0
  3  4  1  0
  4  5  1  0
  4  6  2  0
  3  7  2  0
  7  8  1  0
  8  9  2  0
  9 10  1  0
 10 11  2  0
 10 12  1  0
 12 13  1  0
 13 14  1  0
 13 15  1  0
  9  1  1  0
  1 16  1  0
  2 17  1  0
  7 18  1  0
  8 19  1  0
 13 20  1  0
 14 21  1  0
 14 22  1  0
 14 23  1  0
 15 24  1  0
 15 25  1  0
 15 26  1  0
M  CHG  2   4   1   5  -1
M  END
