
     RDKit          3D

 29 30  0  0  0  0  0  0  0  0999 V2000
    0.1144    0.0581    4.0999 Cl  0  0  0  0  0  0  0  0  0  0  0  0
   -0.3523   -0.0460    2.5727 Au  0  0  0  0  0  3  0  0  0  0  0  0
   -0.1602   -0.2738    0.6131 C   0  0  0  0  0  0  0  0  0  0  0  0
    1.1296   -0.4810    0.1005 N   0  0  0  0  0  0  0  0  0  0  0  0
    2.1587   -1.2510    0.8157 C   0  0  0  0  0  0  0  0  0  0  0  0
    3.3720   -0.3349    0.7661 C   0  0  0  0  0  0  0  0  0  0  0  0
    3.2120    0.4176   -0.5493 C   0  0  0  0  0  0  0  0  0  0  0  0
    1.8857   -0.1300   -1.0782 C   0  0  0  0  0  0  0  0  0  0  0  0
   -1.3765   -0.2057   -0.1218 N   0  0  0  0  0  0  0  0  0  0  0  0
   -1.7566    0.2013   -1.4662 C   0  0  0  0  0  0  0  0  0  0  0  0
   -2.6945    1.3524   -1.1120 C   0  0  0  0  0  0  0  0  0  0  0  0
   -3.4524    0.7202    0.0636 C   0  0  0  0  0  0  0  0  0  0  0  0
   -2.6940   -0.5775    0.3695 C   0  0  0  0  0  0  0  0  0  0  0  0
    2.3780   -2.1620    0.2447 H   0  0  0  0  0  0  0  0  0  0  0  0
    1.9119   -1.4296    1.8664 H   0  0  0  0  0  0  0  0  0  0  0  0
    4.3305   -0.9005    0.7689 H   0  0  0  0  0  0  0  0  0  0  0  0
    3.4026    0.3708    1.6059 H   0  0  0  0  0  0  0  0  0  0  0  0
    4.0386    0.1380   -1.2322 H   0  0  0  0  0  0  0  0  0  0  0  0
    3.1931    1.5132   -0.4041 H   0  0  0  0  0  0  0  0  0  0  0  0
    1.4442    0.6205   -1.7239 H   0  0  0  0  0  0  0  0  0  0  0  0
    2.1598   -1.0857   -1.5865 H   0  0  0  0  0  0  0  0  0  0  0  0
   -0.9239    0.5107   -2.0985 H   0  0  0  0  0  0  0  0  0  0  0  0
   -2.3356   -0.6407   -1.9083 H   0  0  0  0  0  0  0  0  0  0  0  0
   -2.0471    2.1917   -0.7631 H   0  0  0  0  0  0  0  0  0  0  0  0
   -3.3615    1.6219   -1.9356 H   0  0  0  0  0  0  0  0  0  0  0  0
   -4.5022    0.5630   -0.1805 H   0  0  0  0  0  0  0  0  0  0  0  0
   -3.2977    1.3891    0.9517 H   0  0  0  0  0  0  0  0  0  0  0  0
   -3.1385   -1.4359   -0.1476 H   0  0  0  0  0  0  0  0  0  0  0  0
   -2.6383   -0.7141    1.4693 H   0  0  0  0  0  0  0  0  0  0  0  0
  1  2  1  0
  2  3  2  3
  3  4  1  0
  4  5  1  0
  5  6  1  0
  6  7  1  0
  7  8  1  0
  3  9  1  0
  9 10  1  0
 10 11  1  0
 11 12  1  0
 12 13  1  0
  8  4  1  0
 13  9  1  0
  5 14  1  0
  5 15  1  0
  6 16  1  0
  6 17  1  0
  7 18  1  0
  7 19  1  0
  8 20  1  0
  8 21  1  0
 10 22  1  0
 10 23  1  0
 11 24  1  0
 11 25  1  0
 12 26  1  0
 12 27  1  0
 13 28  1  0
 13 29  1  0
M  END
