
  --CCDC--092525    3D                              

 80 95  0  0  0  0  0  0  0  0999 V2000
    0.6502   -2.2561   -4.8752 C      0
    2.0079   -2.6792   -4.7682 O      0
    2.5679   -2.9032   -3.5350 C      0
    3.8875   -3.3126   -3.4785 C      0
    4.4880   -3.5538   -2.2567 C      0
    3.7840   -3.3923   -1.0715 C      0
    2.4605   -2.9685   -1.1379 C      0
    1.8539   -2.7299   -2.3589 C      0
    4.4691   -3.6766    0.1482 N      0
    6.4459   -3.9439   -0.0195 Cu     0
    7.2468   -6.1797   -0.1343 P      0
    6.0604   -7.2956   -0.9209 C      0
    4.6953   -7.1280   -0.7168 C      0
    3.7920   -8.0279   -1.2575 C      0
    4.2404   -9.1097   -1.9839 C      0
    5.5929   -9.3034   -2.1640 C      0
    6.5032   -8.4086   -1.6269 C      0
    7.6606   -6.8367    1.4995 C      0
    7.7087   -8.2100    1.7116 C      0
    8.1025   -8.7149    2.9396 C      0
    8.4712   -7.8599    3.9556 C      0
    8.4569   -6.4979    3.7462 C      0
    8.0634   -5.9849    2.5214 C      0
    8.7373   -6.0593   -1.1397 C      0
    9.5114   -5.4488   -0.3829 C      0
    8.6839   -5.5841   -1.8245 C      0
    8.4958   -4.7153   -3.2329 C      0
    8.2922   -5.7210   -2.5242 C      0
    9.5953   -3.9626   -1.7221 Fe     0
   10.7692   -2.5647   -2.7776 C      0
   11.4920   -3.0503   -1.7185 C      0
   10.7683   -2.6578   -0.5702 C      0
    9.3738   -2.1152   -0.7689 C      0
    9.6252   -1.9257   -2.2350 C      0
    7.9006   -2.0797    0.2918 P      0
    8.4586   -1.9894    2.0128 C      0
    7.7680   -1.2179    2.9422 C      0
    8.1597   -1.1977    4.2703 C      0
    9.2273   -1.9604    4.6903 C      0
    9.8979   -2.7561    3.7874 C      0
    9.5106   -2.7835    2.4579 C      0
    7.0410   -0.5267   -0.0645 C      0
    5.9787   -0.4986   -0.9604 C      0
    5.3689    0.7002   -1.2907 C      0
    5.8261    1.8830   -0.7520 C      0
    6.9015    1.8730    0.1093 C      0
    7.5157    0.6778    0.4443 C      0
    3.8944   -3.8281    1.4456 C      0
    2.7176   -3.7174    1.7267 O      0
    4.8419   -4.1855    2.6065 C      0
    5.4069   -5.3693    2.4351 F      0
    4.2056   -4.2338    3.7654 F      0
    5.8216   -3.3101    2.7489 F      0
    0.3679   -2.1257   -5.9179 H      0
    0.5000   -1.3084   -4.3624 H      0
   -0.0189   -2.9909   -4.4323 H      0
    4.4526   -3.4460   -4.3951 H      0
    5.5234   -3.8766   -2.2240 H      0
    1.8840   -2.8063   -0.2358 H      0
    0.8192   -2.4051   -2.3755 H      0
    4.3359   -6.2867   -0.1335 H      0
    2.7275   -7.8817   -1.1067 H      0
    3.5298   -9.8104   -2.4096 H      0
    5.9458  -10.1613   -2.7268 H      0
    7.5671   -8.5753   -1.7600 H      0
    7.4343   -8.8896    0.9115 H      0
    8.1232   -9.7875    3.1017 H      0
    8.7760   -8.2586    4.9176 H      0
    8.7564   -5.8252    4.5430 H      0
    8.0635   -4.9126    2.3596 H      0
    6.9181   -0.6238    2.6228 H      0
    7.6230   -0.5802    4.9829 H      0
    9.5360   -1.9384    5.7303 H      0
   10.7308   -3.3667    4.1200 H      0
   10.0308   -3.4328    1.7624 H      0
    5.6243   -1.4222   -1.4028 H      0
    4.5296    0.7083   -1.9784 H      0
    5.3436    2.8202   -1.0089 H      0
    7.2698    2.8051    0.5248 H      0
    8.3714    0.6806    1.1114 H      0
  1  2  1
  2  3  1
  3  4  4
  4  5  4
  5  6  4
  6  7  4
  7  8  4
  3  8  4
  6  9  1
  9 10  1
 10 11  1
 11 12  1
 12 13  4
 13 14  4
 14 15  4
 15 16  4
 16 17  4
 12 17  4
 11 18  1
 18 19  4
 19 20  4
 20 21  4
 21 22  4
 22 23  4
 18 23  4
 11 24  1
 24 25  4
 25 26  4
 26 27  4
 27 28  4
 24 28  4
 28 29  1
 24 29  1
 25 29  1
 26 29  1
 27 29  1
 29 30  1
 30 31  4
 29 31  1
 31 32  4
 29 32  1
 32 33  4
 29 33  1
 33 34  4
 29 34  1
 30 34  4
 33 35  1
 10 35  1
 35 36  1
 36 37  4
 37 38  4
 38 39  4
 39 40  4
 40 41  4
 36 41  4
 35 42  1
 42 43  4
 43 44  4
 44 45  4
 45 46  4
 46 47  4
 42 47  4
  9 48  1
 48 49  2
 48 50  1
 50 51  1
 50 52  1
 50 53  1
  1 54  1
  1 55  1
  1 56  1
  4 57  1
  5 58  1
  7 59  1
  8 60  1
 13 61  1
 14 62  1
 15 63  1
 16 64  1
 17 65  1
 19 66  1
 20 67  1
 21 68  1
 22 69  1
 23 70  1
 37 71  1
 38 72  1
 39 73  1
 40 74  1
 41 75  1
 43 76  1
 44 77  1
 45 78  1
 46 79  1
 47 80  1
M  END
$$$$
