
     RDKit          3D

  0  0  0  0  0  0  0  0  0  0999 V3000
M  V30 BEGIN CTAB
M  V30 COUNTS 43 45 0 0 0
M  V30 BEGIN ATOM
M  V30 1 C 5.483261 -0.505607 -0.428164 0
M  V30 2 C 5.276730 0.857165 -0.494127 0
M  V30 3 C 4.020040 1.367355 -0.342366 0
M  V30 4 C 2.913202 0.543488 -0.119034 0
M  V30 5 C 1.525832 1.100992 0.027855 0 CFG=1
M  V30 6 C 1.572618 2.439100 -0.725039 0
M  V30 7 N 0.545516 0.263501 -0.622498 0
M  V30 8 Pt -0.331578 -0.863168 0.862819 0 CFG=2 VAL=4
M  V30 9 N -1.347340 -1.911944 2.286614 0
M  V30 10 C -1.241554 -1.626923 3.507879 0
M  V30 11 O -0.974692 -1.388935 4.687574 0
M  V30 12 C -1.846664 0.720269 1.065607 0
M  V30 13 C -2.094691 1.905227 1.657567 0
M  V30 14 C -3.291540 2.471578 1.308795 0
M  V30 15 C -4.114383 1.817889 0.421630 0
M  V30 16 C -3.896061 0.609988 -0.200941 0
M  V30 17 C -2.669336 -0.008595 0.134015 0
M  V30 18 C -2.479591 -1.388056 -0.503978 0 CFG=1
M  V30 19 C -3.361394 -1.503142 -1.714308 0
M  V30 20 N -1.223158 -2.086535 -0.591720 0
M  V30 21 C 3.098729 -0.821789 -0.050332 0
M  V30 22 C 4.383713 -1.310486 -0.207051 0
M  V30 23 H 6.493482 -0.846263 -0.557831 0
M  V30 24 H 6.107624 1.539726 -0.662719 0
M  V30 25 H 3.888874 2.458009 -0.395222 0
M  V30 26 H 1.314315 1.288322 1.085688 0
M  V30 27 H 2.259674 2.379200 -1.608699 0
M  V30 28 H 0.575243 2.650983 -1.147917 0
M  V30 29 H 1.900375 3.258804 -0.076352 0
M  V30 30 H 0.923992 -0.354468 -1.349277 0
M  V30 31 H -0.206235 0.833126 -1.058657 0
M  V30 32 H -1.182694 1.970539 2.229994 0
M  V30 33 H -3.336501 3.384816 1.854114 0
M  V30 34 H -5.014942 2.370791 0.238449 0
M  V30 35 H -4.667001 0.266109 -0.863849 0
M  V30 36 H -3.046715 -2.049204 0.273266 0
M  V30 37 H -4.421759 -1.686124 -1.449911 0
M  V30 38 H -3.365217 -0.482476 -2.201740 0
M  V30 39 H -2.973075 -2.256222 -2.442347 0
M  V30 40 H -0.728809 -2.154993 -1.497527 0
M  V30 41 H -1.255810 -3.108693 -0.295990 0
M  V30 42 H 2.258155 -1.498452 0.118871 0
M  V30 43 H 4.529367 -2.364835 -0.153139 0
M  V30 END ATOM
M  V30 BEGIN BOND
M  V30 1 2 1 2
M  V30 2 1 2 3
M  V30 3 2 3 4
M  V30 4 1 4 5
M  V30 5 1 5 6
M  V30 6 1 5 7
M  V30 7 9 7 8
M  V30 8 1 8 9
M  V30 9 2 9 10
M  V30 10 2 10 11
M  V30 11 1 8 12
M  V30 12 2 12 13
M  V30 13 1 13 14
M  V30 14 2 14 15
M  V30 15 1 15 16
M  V30 16 2 16 17
M  V30 17 1 17 18
M  V30 18 1 18 19
M  V30 19 1 18 20
M  V30 20 1 4 21
M  V30 21 2 21 22
M  V30 22 1 22 1
M  V30 23 9 20 8
M  V30 24 1 17 12
M  V30 25 1 1 23
M  V30 26 1 2 24
M  V30 27 1 3 25
M  V30 28 1 5 26 CFG=1
M  V30 29 1 6 27
M  V30 30 1 6 28
M  V30 31 1 6 29
M  V30 32 1 7 30
M  V30 33 1 7 31
M  V30 34 1 13 32
M  V30 35 1 14 33
M  V30 36 1 15 34
M  V30 37 1 16 35
M  V30 38 1 18 36 CFG=1
M  V30 39 1 19 37
M  V30 40 1 19 38
M  V30 41 1 19 39
M  V30 42 1 20 40
M  V30 43 1 20 41
M  V30 44 1 21 42
M  V30 45 1 22 43
M  V30 END BOND
M  V30 END CTAB
M  END
