
  --CCDC--092525    3D                              

 64 65  0  0  0  0  0  0  0  0999 V2000
    0.5787    1.2013   -1.0857 H      0
    1.1122    1.5902   -0.2197 C      0
    1.4206    0.7632    0.4182 H      0
    0.1509    2.4610    0.5721 C      0
   -1.0109    2.8357    0.0824 N      0
   -1.5946    3.6608    0.9740 N      0
   -2.8974    4.0738    0.9121 O      0
   -3.1558    3.2020   -0.2142 C      0
   -4.1671    2.8623   -0.3547 H      0
   -2.6834    2.2268   -0.1395 H      0
   -2.9356    3.5990   -1.1878 H      0
   -3.1911    2.9041    1.7120 C      0
   -3.9583    2.2479    1.3173 H      0
   -3.4329    3.0713    2.7577 H      0
   -2.3529    2.2182    1.7810 H      0
   -2.7881    4.8082    2.1510 C      0
   -3.6996    4.9211    2.7056 H      0
   -2.4794    5.8267    2.0604 H      0
   -2.1445    4.3878    2.9153 H      0
   -4.5201    4.5638    0.8244 P      0
   -5.5695    3.7658    2.0990 C      0
   -5.7309    2.7093    1.8980 H      0
   -6.5627    4.2091    2.0875 H      0
   -5.1928    3.8545    3.1148 H      0
   -5.0827    6.1727    1.4837 C      0
   -5.9859    6.0443    2.0744 H      0
   -4.3646    6.6780    2.1240 H      0
   -5.3511    6.8495    0.6773 H      0
   -5.0797    4.9859   -0.8643 C      0
   -6.1389    5.2300   -0.8159 H      0
   -4.6094    5.8381   -1.3312 H      0
   -4.9991    4.1525   -1.5586 H      0
   -2.1941    5.3268    0.0083 P      0
   -0.6804    6.1252    0.6543 C      0
   -0.3448    6.8744   -0.0595 H      0
    0.1563    5.4495    0.8022 H      0
   -0.8393    6.6484    1.5938 H      0
   -2.8353    7.0321    0.0944 C      0
   -2.1312    7.6778   -0.4260 H      0
   -2.8992    7.4256    1.1049 H      0
   -3.7795    7.1938   -0.4059 H      0
   -0.9785    4.8766   -1.2851 C      0
   -1.2858    4.0561   -1.9275 H      0
   -0.8500    5.7367   -1.9389 H      0
    0.0169    4.6503   -0.9126 H      0
   -0.7859    3.8072    2.0423 N      0
    0.2957    3.0878    1.8364 C      0
    1.4513    3.0632    2.8054 C      0
    1.8784    2.0615    2.8168 H      0
    1.0813    3.3113    3.7991 H      0
    2.5396    4.0556    2.4258 C      0
    3.4385    3.7836    2.9771 H      0
    2.2065    5.0438    2.7396 H      0
    2.9113    4.1435    0.9632 C      0
    3.7347    4.8499    0.8698 H      0
    2.0457    4.5211    0.4208 H      0
    3.3448    2.8223    0.3000 C      0
    3.4668    2.0721    1.0799 H      0
    4.2992    2.9867   -0.1980 H      0
    2.3655    2.2933   -0.7165 C      0
    2.0413    3.1392   -1.3209 H      0
    2.9045    1.5846   -1.3434 H      0
   -5.4286    3.6047    0.3579 H      0
   -2.7686    5.4525   -1.2561 H      0
  1  2  1
  2  3  1
  2  4  1
  4  5  2
  5  6  1
  6  7  1
  7  8  1
  8  9  1
  8 10  1
  8 11  1
  7 12  1
 12 13  1
 12 14  1
 12 15  1
  7 16  1
 16 17  1
 16 18  1
 16 19  1
  7 20  1
 20 21  1
 21 22  1
 21 23  1
 21 24  1
 20 25  1
 25 26  1
 25 27  1
 25 28  1
 20 29  1
 29 30  1
 29 31  1
 29 32  1
  7 33  1
 33 34  1
 34 35  1
 34 36  1
 34 37  1
 33 38  1
 38 39  1
 38 40  1
 38 41  1
 33 42  1
 42 43  1
 42 44  1
 42 45  1
  6 46  1
 46 47  2
  4 47  1
 47 48  1
 48 49  1
 48 50  1
 48 51  1
 51 52  1
 51 53  1
 51 54  1
 54 55  1
 54 56  1
 54 57  1
 57 58  1
 57 59  1
 57 60  1
  2 60  1
 60 61  1
 60 62  1
 20 63  1
 33 64  1
M  END
$$$$
