
  --CCDC--092525    3D                              

 44 43  0  0  0  0  0  0  0  0999 V2000
   -0.1233    0.2368    0.0747 H      0
    0.3663    1.1943   -0.0869 C      0
    0.1125    1.5164   -1.0946 H      0
    1.4374    1.0218   -0.0880 H      0
   -0.1998    2.4403    1.1182 P      0
    0.7584    3.6673    0.1637 C      0
    0.4646    3.5952   -0.8814 H      0
    1.8336    3.5252    0.1823 H      0
    0.5482    4.6908    0.4634 H      0
   -1.7811    1.7715    0.5006 C      0
   -1.9410    0.7441    0.8246 H      0
   -1.7625    1.7530   -0.5865 H      0
   -2.6488    2.3778    0.7608 H      0
    0.0323    2.2671    2.7893 O      0
    0.3918    2.1158    4.0586 N      0
   -0.2643    2.1392    5.1386 N      3
   -0.7254    2.1343    6.1845 N      5
   -1.3954    2.4873    2.8808 C      0
   -2.0127    1.7030    2.4693 H      0
   -1.7674    3.4008    2.4249 H      0
   -1.7883    2.5286    3.8912 H      0
    0.1555    3.6475    3.1371 C      0
   -0.6815    4.0423    3.7068 H      0
    0.3116    4.3471    2.3339 H      0
    0.9403    3.7768    3.8732 H      0
   -0.2827    0.8817    2.9253 C      0
   -1.1794    0.6881    3.5111 H      0
    0.4318    0.4022    3.5821 H      0
   -0.3716    0.3091    2.0127 H      0
    1.6561    2.0165    2.5817 P      0
    2.5425    1.7236    4.1465 C      0
    2.2032    0.8322    4.6742 H      0
    3.5957    1.5634    3.9255 H      0
    2.5017    2.5647    4.8388 H      0
    2.6908    3.5203    2.5491 C      0
    2.2763    4.3257    1.9535 H      0
    3.6679    3.2791    2.1357 H      0
    2.8680    3.9249    3.5423 H      0
    2.1571    0.2965    2.2305 C      0
    1.4988   -0.2196    1.5410 H      0
    2.2116   -0.3118    3.1300 H      0
    3.1542    0.2913    1.7951 H      0
   -1.0008    3.5587    0.8595 H      0
    2.1624    2.0601    1.2910 H      0
  1  2  1
  2  3  1
  2  4  1
  2  5  1
  5  6  1
  6  7  1
  6  8  1
  6  9  1
  5 10  1
 10 11  1
 10 12  1
 10 13  1
  5 14  1
 14 15  1
 15 16  2
 16 17  2
 14 18  1
 18 19  1
 18 20  1
 18 21  1
 14 22  1
 22 23  1
 22 24  1
 22 25  1
 14 26  1
 26 27  1
 26 28  1
 26 29  1
 14 30  1
 30 31  1
 31 32  1
 31 33  1
 31 34  1
 30 35  1
 35 36  1
 35 37  1
 35 38  1
 30 39  1
 39 40  1
 39 41  1
 39 42  1
  5 43  1
 30 44  1
M  CHG  2  16   1  17  -1
M  END
$$$$
