
     RDKit          3D

  0  0  0  0  0  0  0  0  0  0999 V3000
M  V30 BEGIN CTAB
M  V30 COUNTS 109 117 0 0 0
M  V30 BEGIN ATOM
M  V30 1 C 0.436430 0.274019 4.874322 0
M  V30 2 C 0.539187 0.193107 3.518926 0
M  V30 3 N 0.611206 0.111006 2.401918 0
M  V30 4 Fe 0.742367 -0.074831 0.366178 0 CHG=2 VAL=6
M  V30 5 N 1.109282 -0.297942 -1.634935 0
M  V30 6 C 1.313826 -0.400032 -2.723678 0
M  V30 7 C 1.561496 -0.501404 -4.062146 0
M  V30 8 N 2.072423 -1.730281 0.735254 0
M  V30 9 C 1.556715 -2.941810 0.789809 0
M  V30 10 C 0.039001 -3.184704 0.590241 0
M  V30 11 P -1.046512 -1.676753 0.338940 0 RAD=2 VAL=4
M  V30 12 C -2.324677 -1.582548 1.491040 0
M  V30 13 C -2.396101 -2.536855 2.520128 0
M  V30 14 C -3.390487 -2.549652 3.508114 0
M  V30 15 C -4.381000 -1.594647 3.519824 0
M  V30 16 C -5.462192 -1.546485 4.533703 0
M  V30 17 C -4.350372 -0.635416 2.526627 0
M  V30 18 C -3.335498 -0.700857 1.597083 0
M  V30 19 C -1.940985 -2.013536 -1.117510 0
M  V30 20 C -1.176305 -2.544767 -2.173822 0
M  V30 21 C -1.662321 -2.901131 -3.433968 0
M  V30 22 C -2.999106 -2.735035 -3.707522 0
M  V30 23 C -3.696882 -3.050985 -4.968201 0
M  V30 24 C -3.791873 -2.217540 -2.701789 0
M  V30 25 C -3.244719 -1.892812 -1.496548 0
M  V30 26 C 3.500614 -1.377783 0.911040 0
M  V30 27 C 3.789976 0.119265 0.788831 0
M  V30 28 N 2.585521 0.937154 0.531357 0
M  V30 29 C 2.263535 2.104486 0.336036 0
M  V30 30 C 1.042289 3.038565 0.063012 0
M  V30 31 P -0.519339 1.909320 0.088413 0 RAD=2 VAL=4
M  V30 32 C -1.404095 2.271498 -1.377373 0
M  V30 33 C -1.061592 3.302865 -2.238734 0
M  V30 34 C -1.715341 3.646524 -3.415156 0
M  V30 35 C -2.833043 2.910615 -3.811137 0
M  V30 36 C -3.607246 3.173762 -5.029655 0
M  V30 37 C -3.237304 1.871186 -3.010411 0
M  V30 38 C -2.510921 1.624362 -1.868420 0
M  V30 39 C -1.626637 2.542585 1.270609 0
M  V30 40 C -2.978597 2.753648 1.322822 0
M  V30 41 C -3.623458 3.290639 2.410649 0
M  V30 42 C -2.938868 3.661368 3.547076 0
M  V30 43 C -3.793798 4.221301 4.624063 0
M  V30 44 C -1.572908 3.479214 3.567913 0
M  V30 45 C -0.949032 2.929471 2.441557 0
M  V30 46 C 4.960365 0.408739 0.014086 0
M  V30 47 C 6.221734 0.486614 0.623256 0
M  V30 48 C 7.392035 0.758867 -0.031078 0
M  V30 49 C 7.358832 0.977067 -1.391584 0
M  V30 50 C 6.161434 0.919096 -2.068690 0
M  V30 51 C 5.016425 0.639047 -1.344534 0
M  V30 52 C 4.434053 -2.067618 0.032790 0
M  V30 53 C 5.648454 -2.512708 0.561620 0
M  V30 54 C 6.629575 -3.181891 -0.136444 0
M  V30 55 C 6.413166 -3.444157 -1.471450 0
M  V30 56 C 5.239259 -3.038314 -2.069236 0
M  V30 57 C 4.326690 -2.384068 -1.304745 0
M  V30 58 H -0.426299 -0.317122 5.295037 0
M  V30 59 H 1.346478 -0.162092 5.335191 0
M  V30 60 H 0.240136 1.333148 5.146310 0
M  V30 61 H 1.158859 0.365962 -4.659162 0
M  V30 62 H 1.028058 -1.399709 -4.441970 0
M  V30 63 H 2.656442 -0.502720 -4.236909 0
M  V30 64 H 0.691735 -2.493386 0.609926 0
M  V30 65 H -0.147060 -3.935208 -0.213584 0
M  V30 66 H -0.358217 -3.781777 1.487485 0
M  V30 67 H -1.747791 -3.360242 2.717192 0
M  V30 68 H -3.488045 -3.261775 4.319854 0
M  V30 69 H -6.367740 -1.014395 4.132736 0
M  V30 70 H -5.843167 -2.568070 4.790333 0
M  V30 71 H -5.176537 -1.013418 5.447733 0
M  V30 72 H -5.112276 0.131838 2.502630 0
M  V30 73 H -3.367916 0.073126 0.859864 0
M  V30 74 H -0.117317 -2.743653 -2.094299 0
M  V30 75 H -1.064167 -3.300575 -4.215170 0
M  V30 76 H -3.162823 -3.755216 -5.612001 0
M  V30 77 H -3.891182 -2.078314 -5.489291 0
M  V30 78 H -4.721009 -3.455705 -4.717924 0
M  V30 79 H -4.846221 -2.055530 -2.830445 0
M  V30 80 H -3.872332 -1.498182 -0.714947 0
M  V30 81 H 3.714136 -1.753617 1.961290 0
M  V30 82 H 4.015417 0.423805 1.842324 0
M  V30 83 H 2.517798 2.962263 0.230147 0
M  V30 84 H 0.896283 3.714912 0.919124 0
M  V30 85 H 1.054262 3.537004 -0.851930 0
M  V30 86 H -0.246068 3.989843 -2.116428 0
M  V30 87 H -1.465776 4.439463 -4.094549 0
M  V30 88 H -4.715041 3.111333 -4.816648 0
M  V30 89 H -3.450590 2.353724 -5.777479 0
M  V30 90 H -3.425534 4.143545 -5.493947 0
M  V30 91 H -4.097196 1.272465 -3.274896 0
M  V30 92 H -2.862580 0.809489 -1.264884 0
M  V30 93 H -3.432567 2.430614 0.376594 0
M  V30 94 H -4.688096 3.380556 2.267189 0
M  V30 95 H -3.112103 4.421250 5.488825 0
M  V30 96 H -4.192218 5.236246 4.359917 0
M  V30 97 H -4.589341 3.543520 4.967927 0
M  V30 98 H -1.086976 3.781562 4.471063 0
M  V30 99 H 0.134588 2.870518 2.638117 0
M  V30 100 H 6.260903 0.315128 1.703632 0
M  V30 101 H 8.316004 0.792935 0.554328 0
M  V30 102 H 8.338350 1.185007 -1.816240 0
M  V30 103 H 6.184578 1.094100 -3.117568 0
M  V30 104 H 4.087631 0.599216 -1.899896 0
M  V30 105 H 5.878785 -2.337825 1.604671 0
M  V30 106 H 7.547372 -3.498760 0.334226 0
M  V30 107 H 7.173569 -3.963737 -2.019492 0
M  V30 108 H 5.031037 -3.228518 -3.125167 0
M  V30 109 H 3.407081 -2.071850 -1.774922 0
M  V30 END ATOM
M  V30 BEGIN BOND
M  V30 1 1 1 2
M  V30 2 3 2 3
M  V30 3 9 3 4
M  V30 4 9 5 4
M  V30 5 3 5 6
M  V30 6 1 6 7
M  V30 7 9 8 4
M  V30 8 2 8 9
M  V30 9 1 9 10
M  V30 10 1 10 11
M  V30 11 1 11 12
M  V30 12 2 12 13
M  V30 13 1 13 14
M  V30 14 2 14 15
M  V30 15 1 15 16
M  V30 16 1 15 17
M  V30 17 2 17 18
M  V30 18 1 11 19
M  V30 19 2 19 20
M  V30 20 1 20 21
M  V30 21 2 21 22
M  V30 22 1 22 23
M  V30 23 1 22 24
M  V30 24 2 24 25
M  V30 25 1 8 26
M  V30 26 1 26 27
M  V30 27 1 27 28
M  V30 28 2 28 29
M  V30 29 1 29 30
M  V30 30 1 30 31
M  V30 31 1 31 32
M  V30 32 2 32 33
M  V30 33 1 33 34
M  V30 34 2 34 35
M  V30 35 1 35 36
M  V30 36 1 35 37
M  V30 37 2 37 38
M  V30 38 1 31 39
M  V30 39 2 39 40
M  V30 40 1 40 41
M  V30 41 2 41 42
M  V30 42 1 42 43
M  V30 43 1 42 44
M  V30 44 2 44 45
M  V30 45 1 27 46
M  V30 46 2 46 47
M  V30 47 1 47 48
M  V30 48 2 48 49
M  V30 49 1 49 50
M  V30 50 2 50 51
M  V30 51 1 26 52
M  V30 52 2 52 53
M  V30 53 1 53 54
M  V30 54 2 54 55
M  V30 55 1 55 56
M  V30 56 2 56 57
M  V30 57 1 11 4
M  V30 58 1 18 12
M  V30 59 1 25 19
M  V30 60 1 38 32
M  V30 61 1 45 39
M  V30 62 1 51 46
M  V30 63 1 57 52
M  V30 64 9 28 4
M  V30 65 1 31 4
M  V30 66 1 1 58
M  V30 67 1 1 59
M  V30 68 1 1 60
M  V30 69 1 7 61
M  V30 70 1 7 62
M  V30 71 1 7 63
M  V30 72 1 9 64
M  V30 73 1 10 65
M  V30 74 1 10 66
M  V30 75 1 13 67
M  V30 76 1 14 68
M  V30 77 1 16 69
M  V30 78 1 16 70
M  V30 79 1 16 71
M  V30 80 1 17 72
M  V30 81 1 18 73
M  V30 82 1 20 74
M  V30 83 1 21 75
M  V30 84 1 23 76
M  V30 85 1 23 77
M  V30 86 1 23 78
M  V30 87 1 24 79
M  V30 88 1 25 80
M  V30 89 1 26 81
M  V30 90 1 27 82
M  V30 91 1 29 83
M  V30 92 1 30 84
M  V30 93 1 30 85
M  V30 94 1 33 86
M  V30 95 1 34 87
M  V30 96 1 36 88
M  V30 97 1 36 89
M  V30 98 1 36 90
M  V30 99 1 37 91
M  V30 100 1 38 92
M  V30 101 1 40 93
M  V30 102 1 41 94
M  V30 103 1 43 95
M  V30 104 1 43 96
M  V30 105 1 43 97
M  V30 106 1 44 98
M  V30 107 1 45 99
M  V30 108 1 47 100
M  V30 109 1 48 101
M  V30 110 1 49 102
M  V30 111 1 50 103
M  V30 112 1 51 104
M  V30 113 1 53 105
M  V30 114 1 54 106
M  V30 115 1 55 107
M  V30 116 1 56 108
M  V30 117 1 57 109
M  V30 END BOND
M  V30 END CTAB
M  END
