
 OpenBabel09252518083D

 53 64  0  0  1  0  0  0  0  0999 V2000
    0.9720    0.0088    0.0956 H   0  0  0  0  0  0  0  0  0  0  0  0
    2.0420    0.0088    0.0956 C   0  0  0  0  0  0  0  0  0  0  0  0
    2.3986    0.8933   -0.3896 H   0  0  0  0  0  0  0  0  0  0  0  0
    2.3986   -0.0132    1.1042 H   0  0  0  0  0  0  0  0  0  0  0  0
    2.5486   -1.2163   -0.6479 C   0  0  0  0  0  0  0  0  0  0  0  0
    2.9690   -2.2327   -1.2646 N   0  0  0  0  0  4  0  0  0  0  0  0
    3.6923   -3.9817   -2.3260 Ru  0  0  0  0  0  0  0  0  0  0  0  0
    2.3681   -3.4842   -4.0369 C   0  0  0  0  0  0  0  0  0  0  0  0
    1.6648   -3.2064   -4.9919 O   0  0  0  0  0  0  0  0  0  0  0  0
    3.9550   -5.4623   -2.0328 Br  0  0  0  0  0  2  0  0  0  0  0  0
    3.5297   -5.7524   -0.6554 Ru  0  3  0  0  0  0  0  0  0  0  0  0
    5.5227   -5.8746   -1.6257 C   0  0  0  0  0  0  0  0  0  0  0  0
    6.6165   -5.9416   -2.1575 O   0  0  0  0  0  0  0  0  0  0  0  0
    4.9039   -4.6020   -1.8788 N   0  0  0  0  0  4  0  0  0  0  0  0
    5.6316   -3.8965   -2.6291 C   0  0  0  0  0  0  0  0  0  0  0  0
    6.5088   -3.0461   -3.5334 C   0  0  0  0  0  0  0  0  0  0  0  0
    6.6509   -2.0830   -3.0894 H   0  0  0  0  0  0  0  0  0  0  0  0
    7.4578   -3.5234   -3.6612 H   0  0  0  0  0  0  0  0  0  0  0  0
    6.0351   -2.9332   -4.4862 H   0  0  0  0  0  0  0  0  0  0  0  0
    4.5224   -5.1349    2.7653 C   0  0  2  0  0  0  0  0  0  0  0  0
    4.6161   -4.9391    3.8130 H   0  0  0  0  0  0  0  0  0  0  0  0
    5.7485   -5.3178    1.9799 C   0  0  1  0  0  0  0  0  0  0  0  0
    6.6124   -5.3667    2.6093 H   0  0  0  0  0  0  0  0  0  0  0  0
    5.5098   -5.1913    0.6616 C   0  0  1  0  0  0  0  0  0  0  0  0
    4.0451   -4.9181    0.4299 C   0  0  1  0  0  0  0  0  0  0  0  0
    3.3606   -5.2942    1.7583 C   0  0  2  0  0  0  0  0  0  0  0  0
    2.5849   -5.3930    2.4886 H   0  0  0  0  0  0  0  0  0  0  0  0
    3.8078   -3.4401    0.1129 C   0  0  0  0  0  0  0  0  0  0  0  0
    2.3822   -3.5908    0.6183 C   0  0  0  0  0  0  0  0  0  0  0  0
    2.0256   -2.6444    0.9676 H   0  0  0  0  0  0  0  0  0  0  0  0
    1.7552   -3.9370   -0.1766 H   0  0  0  0  0  0  0  0  0  0  0  0
    2.3630   -4.2976    1.4214 H   0  0  0  0  0  0  0  0  0  0  0  0
    4.4128   -2.1556    0.6554 C   0  0  0  0  0  0  0  0  0  0  0  0
    4.0823   -1.8530    1.6271 H   0  0  0  0  0  0  0  0  0  0  0  0
    5.4356   -2.4654    0.7069 H   0  0  0  0  0  0  0  0  0  0  0  0
    4.3228   -1.3337   -0.0239 H   0  0  0  0  0  0  0  0  0  0  0  0
    4.3887   -3.1213   -1.2683 C   0  0  1  0  0  0  0  0  0  0  0  0
    4.6527   -1.4638    0.6076 C   0  0  2  0  0  0  0  0  0  0  0  0
    4.6478   -0.6430    1.2941 H   0  0  0  0  0  0  0  0  0  0  0  0
    5.1979   -2.7918    0.1083 C   0  0  2  0  0  0  0  0  0  0  0  0
    5.0297   -3.5041    0.8889 H   0  0  0  0  0  0  0  0  0  0  0  0
    6.6885   -2.6596   -0.1583 C   0  0  2  0  0  0  0  0  0  0  0  0
    7.4204   -1.9738    0.2144 H   0  0  0  0  0  0  0  0  0  0  0  0
    7.2337   -3.9877   -0.6576 C   0  0  1  0  0  0  0  0  0  0  0  0
    7.0004   -5.0591    0.3951 C   0  0  0  0  0  0  0  0  0  0  0  0
    8.1098   -6.0763    0.6068 C   0  0  0  0  0  0  0  0  0  0  0  0
    8.0914   -6.8156   -0.1664 H   0  0  0  0  0  0  0  0  0  0  0  0
    9.0380   -5.5451    0.5705 H   0  0  0  0  0  0  0  0  0  0  0  0
    8.0091   -6.5536    1.5592 H   0  0  0  0  0  0  0  0  0  0  0  0
    7.3760   -4.8607    1.8545 C   0  0  0  0  0  0  0  0  0  0  0  0
    8.0136   -5.6584    2.1738 H   0  0  0  0  0  0  0  0  0  0  0  0
    7.8868   -3.9276    1.9704 H   0  0  0  0  0  0  0  0  0  0  0  0
    6.4859   -4.8561    2.4482 H   0  0  0  0  0  0  0  0  0  0  0  0
  1  2  1  0  0  0  0
  2  3  1  0  0  0  0
  2  4  1  0  0  0  0
  2  5  1  0  0  0  0
  5  6  3  0  0  0  0
  6  7  1  0  0  0  0
  7 10  1  0  0  0  0
  7 37  1  0  0  0  0
  7 38  1  0  0  0  0
  7 40  1  0  0  0  0
  7 42  1  0  0  0  0
  7 44  1  0  0  0  0
  7  8  1  0  0  0  0
  8  9  3  0  0  0  0
 10 11  1  0  0  0  0
 11 20  1  0  0  0  0
 11 22  1  0  0  0  0
 11 24  1  0  0  0  0
 11 25  1  0  0  0  0
 11 26  1  0  0  0  0
 11 12  1  0  0  0  0
 11 14  1  0  0  0  0
 12 13  3  0  0  0  0
 14 15  3  0  0  0  0
 15 16  1  0  0  0  0
 16 17  1  0  0  0  0
 16 18  1  0  0  0  0
 16 19  1  0  0  0  0
 20 22  1  0  0  0  0
 20 26  1  0  0  0  0
 20 21  1  6  0  0  0
 22 24  1  0  0  0  0
 22 23  1  6  0  0  0
 24 25  1  0  0  0  0
 24 45  1  1  0  0  0
 25 26  1  0  0  0  0
 25 28  1  1  0  0  0
 26 27  1  6  0  0  0
 28 29  1  0  0  0  0
 28 33  1  0  0  0  0
 29 30  1  0  0  0  0
 29 31  1  0  0  0  0
 29 32  1  0  0  0  0
 33 34  1  0  0  0  0
 33 35  1  0  0  0  0
 33 36  1  0  0  0  0
 37 28  1  6  0  0  0
 37 38  1  0  0  0  0
 37 44  1  0  0  0  0
 38 40  1  0  0  0  0
 38 39  1  1  0  0  0
 40 42  1  0  0  0  0
 40 41  1  1  0  0  0
 42 44  1  0  0  0  0
 42 43  1  1  0  0  0
 44 45  1  6  0  0  0
 45 46  1  0  0  0  0
 45 50  1  0  0  0  0
 46 47  1  0  0  0  0
 46 48  1  0  0  0  0
 46 49  1  0  0  0  0
 50 51  1  0  0  0  0
 50 52  1  0  0  0  0
 50 53  1  0  0  0  0
M  CHG  1  11   1
M  END
$$$$
