
 OpenBabel09252517243D

 29 30  0  0  0  0  0  0  0  0999 V2000
    0.9814   -0.0715    0.0673 Cl  0  0  0  0  0  0  0  0  0  0  0  0
    3.3614   -0.0715    0.0673 Au  0  0  0  0  0  0  0  0  0  0  0  0
    5.2588   -0.0715    0.0673 C   0  0  0  0  0  0  0  0  0  0  0  0
    5.9938    1.1948   -0.0633 N   0  0  0  0  0  0  0  0  0  0  0  0
    5.6184    2.3983    0.7016 C   0  0  0  0  0  0  0  0  0  0  0  0
    5.9012    3.4956   -0.2866 C   0  0  0  0  0  0  0  0  0  0  0  0
    7.2740    3.0753   -0.8931 C   0  0  0  0  0  0  0  0  0  0  0  0
    7.2019    1.5461   -0.9016 C   0  0  0  0  0  0  0  0  0  0  0  0
    5.9938   -1.3379    0.1980 N   0  0  0  0  0  0  0  0  0  0  0  0
    5.7572   -2.6241   -0.4833 C   0  0  0  0  0  0  0  0  0  0  0  0
    6.1779   -3.6143    0.5671 C   0  0  0  0  0  0  0  0  0  0  0  0
    7.4965   -2.9964    1.1226 C   0  0  0  0  0  0  0  0  0  0  0  0
    7.2430   -1.4891    1.0361 C   0  0  0  0  0  0  0  0  0  0  0  0
    6.1453    2.5038    1.6270 H   0  0  0  0  0  0  0  0  0  0  0  0
    4.5842    2.3784    0.9755 H   0  0  0  0  0  0  0  0  0  0  0  0
    5.1324    3.6096   -1.0220 H   0  0  0  0  0  0  0  0  0  0  0  0
    5.9711    4.4449    0.2022 H   0  0  0  0  0  0  0  0  0  0  0  0
    7.4482    3.4916   -1.8633 H   0  0  0  0  0  0  0  0  0  0  0  0
    8.0835    3.4175   -0.2828 H   0  0  0  0  0  0  0  0  0  0  0  0
    7.1225    1.1576   -1.8954 H   0  0  0  0  0  0  0  0  0  0  0  0
    8.0887    1.1274   -0.4736 H   0  0  0  0  0  0  0  0  0  0  0  0
    6.2842   -2.7260   -1.4089 H   0  0  0  0  0  0  0  0  0  0  0  0
    4.7255   -2.7442   -0.7402 H   0  0  0  0  0  0  0  0  0  0  0  0
    5.4350   -3.7707    1.3211 H   0  0  0  0  0  0  0  0  0  0  0  0
    6.3558   -4.5781    0.1379 H   0  0  0  0  0  0  0  0  0  0  0  0
    7.7282   -3.3258    2.1139 H   0  0  0  0  0  0  0  0  0  0  0  0
    8.3353   -3.2791    0.5214 H   0  0  0  0  0  0  0  0  0  0  0  0
    7.1272   -1.0495    2.0047 H   0  0  0  0  0  0  0  0  0  0  0  0
    8.0696   -0.9970    0.5676 H   0  0  0  0  0  0  0  0  0  0  0  0
  1  2  1  0  0  0  0
  2  3  2  0  0  0  0
  3  4  1  0  0  0  0
  3  9  1  0  0  0  0
  4  5  1  0  0  0  0
  4  8  1  0  0  0  0
  5  6  1  0  0  0  0
  5 14  1  0  0  0  0
  5 15  1  0  0  0  0
  6  7  1  0  0  0  0
  6 16  1  0  0  0  0
  6 17  1  0  0  0  0
  7  8  1  0  0  0  0
  7 18  1  0  0  0  0
  7 19  1  0  0  0  0
  8 20  1  0  0  0  0
  8 21  1  0  0  0  0
  9 10  1  0  0  0  0
  9 13  1  0  0  0  0
 10 11  1  0  0  0  0
 10 22  1  0  0  0  0
 10 23  1  0  0  0  0
 11 12  1  0  0  0  0
 11 24  1  0  0  0  0
 11 25  1  0  0  0  0
 12 13  1  0  0  0  0
 12 26  1  0  0  0  0
 12 27  1  0  0  0  0
 13 28  1  0  0  0  0
 13 29  1  0  0  0  0
M  END
$$$$
