
     RDKit          3D

 62 63  0  0  0  0  0  0  0  0999 V2000
   -1.0648    1.7073    1.9299 C   0  0  0  0  0  0  0  0  0  0  0  0
   -1.3044    0.4008    0.4363 Pt  0  0  0  0  0  6  0  0  0  0  0  0
   -0.9885    1.7990   -0.7301 C   0  0  0  0  0  0  0  0  0  0  0  0
   -1.3686   -1.1465    1.4605 C   0  0  0  0  0  0  0  0  0  0  0  0
    0.6527   -0.0326    0.3181 N   0  0  0  0  0  0  0  0  0  0  0  0
    1.6286    0.3193    1.1074 N   0  0  0  0  0  0  0  0  0  0  0  0
    2.7898   -0.1267    0.7631 C   0  0  0  0  0  0  0  0  0  0  0  0
    3.9539    0.2087    1.5698 C   0  0  0  0  0  0  0  0  0  0  0  0
    4.8532    1.0813    0.7579 C   0  0  0  0  0  0  0  0  0  0  0  0
    5.8478    0.2559    0.0218 C   0  0  0  0  0  0  0  0  0  0  0  0
    5.3702   -1.0702   -0.4722 C   0  0  0  0  0  0  0  0  0  0  0  0
    4.4912   -0.8691   -1.6844 C   0  0  0  0  0  0  0  0  0  0  0  0
    3.2209   -1.6476   -1.3945 C   0  0  0  0  0  0  0  0  0  0  0  0
    2.5567   -0.8237   -0.3353 C   0  0  0  0  0  0  0  0  0  0  0  0
    1.2927   -0.7266   -0.5366 N   0  0  0  0  0  0  0  0  0  0  0  0
   -1.9702   -0.5442   -1.2213 P   0  0  0  0  0  4  0  0  0  0  0  0
   -3.1470    0.2771   -2.3756 C   0  0  0  0  0  0  0  0  0  0  0  0
   -0.5630   -0.8766   -2.4285 C   0  0  0  0  0  0  0  0  0  0  0  0
   -2.5683   -2.2012   -1.0922 C   0  0  0  0  0  0  0  0  0  0  0  0
   -3.0789    0.5691    0.9011 P   0  0  0  0  0  4  0  0  0  0  0  0
   -4.3747   -0.7305    0.7289 C   0  0  0  0  0  0  0  0  0  0  0  0
   -3.9517    2.0426    0.2745 C   0  0  0  0  0  0  0  0  0  0  0  0
   -3.5956    0.8148    2.7367 C   0  0  0  0  0  0  0  0  0  0  0  0
    0.0013    2.0940    1.9019 H   0  0  0  0  0  0  0  0  0  0  0  0
   -1.5749    2.6318    1.9458 H   0  0  0  0  0  0  0  0  0  0  0  0
   -0.9465    1.1848    2.8775 H   0  0  0  0  0  0  0  0  0  0  0  0
   -0.2437    2.6213   -0.4340 H   0  0  0  0  0  0  0  0  0  0  0  0
   -1.8088    2.5120   -0.9588 H   0  0  0  0  0  0  0  0  0  0  0  0
   -0.5029    1.7207   -1.7247 H   0  0  0  0  0  0  0  0  0  0  0  0
   -2.2440   -1.6851    1.7322 H   0  0  0  0  0  0  0  0  0  0  0  0
   -0.8396   -2.1070    1.1040 H   0  0  0  0  0  0  0  0  0  0  0  0
   -0.8991   -1.1330    2.4973 H   0  0  0  0  0  0  0  0  0  0  0  0
    3.6065    0.8513    2.4333 H   0  0  0  0  0  0  0  0  0  0  0  0
    4.4525   -0.6434    2.0438 H   0  0  0  0  0  0  0  0  0  0  0  0
    4.2721    1.7668    0.1103 H   0  0  0  0  0  0  0  0  0  0  0  0
    5.4214    1.7740    1.4445 H   0  0  0  0  0  0  0  0  0  0  0  0
    6.1768    0.8274   -0.8759 H   0  0  0  0  0  0  0  0  0  0  0  0
    6.7413    0.0988    0.6750 H   0  0  0  0  0  0  0  0  0  0  0  0
    4.8772   -1.6701    0.3386 H   0  0  0  0  0  0  0  0  0  0  0  0
    6.2759   -1.6665   -0.7271 H   0  0  0  0  0  0  0  0  0  0  0  0
    4.1888    0.1851   -1.8234 H   0  0  0  0  0  0  0  0  0  0  0  0
    4.9966   -1.2011   -2.5860 H   0  0  0  0  0  0  0  0  0  0  0  0
    3.4020   -2.6862   -1.0748 H   0  0  0  0  0  0  0  0  0  0  0  0
    2.6612   -1.6540   -2.3519 H   0  0  0  0  0  0  0  0  0  0  0  0
   -3.1673   -0.2287   -3.3270 H   0  0  0  0  0  0  0  0  0  0  0  0
   -2.7518    1.3122   -2.6154 H   0  0  0  0  0  0  0  0  0  0  0  0
   -4.1459    0.3983   -1.9944 H   0  0  0  0  0  0  0  0  0  0  0  0
   -0.0151   -1.7867   -2.1379 H   0  0  0  0  0  0  0  0  0  0  0  0
   -1.0143   -1.1275   -3.3878 H   0  0  0  0  0  0  0  0  0  0  0  0
    0.0407    0.0018   -2.5824 H   0  0  0  0  0  0  0  0  0  0  0  0
   -2.8024   -2.5664   -0.0484 H   0  0  0  0  0  0  0  0  0  0  0  0
   -3.4687   -2.4359   -1.6793 H   0  0  0  0  0  0  0  0  0  0  0  0
   -1.8634   -3.0402   -1.4115 H   0  0  0  0  0  0  0  0  0  0  0  0
   -4.5696   -1.0254   -0.3054 H   0  0  0  0  0  0  0  0  0  0  0  0
   -4.2401   -1.5614    1.4475 H   0  0  0  0  0  0  0  0  0  0  0  0
   -5.3439   -0.2899    0.9947 H   0  0  0  0  0  0  0  0  0  0  0  0
   -5.0008    1.9646    0.4725 H   0  0  0  0  0  0  0  0  0  0  0  0
   -3.7802    2.3013   -0.7521 H   0  0  0  0  0  0  0  0  0  0  0  0
   -3.5560    2.9327    0.8670 H   0  0  0  0  0  0  0  0  0  0  0  0
   -3.2843   -0.0720    3.2811 H   0  0  0  0  0  0  0  0  0  0  0  0
   -4.6429    1.0067    2.7869 H   0  0  0  0  0  0  0  0  0  0  0  0
   -3.0901    1.7142    3.1093 H   0  0  0  0  0  0  0  0  0  0  0  0
  1  2  1  0
  2  3  1  0
  2  4  1  0
  2  5  1  0
  5  6  1  0
  6  7  2  0
  7  8  1  0
  8  9  1  0
  9 10  1  0
 10 11  1  0
 11 12  1  0
 12 13  1  0
 13 14  1  0
 14 15  2  0
  2 16  1  0
 16 17  1  0
 16 18  1  0
 16 19  1  0
  2 20  1  0
 20 21  1  0
 20 22  1  0
 20 23  1  0
 15  5  1  0
 14  7  1  0
  1 24  1  0
  1 25  1  0
  1 26  1  0
  3 27  1  0
  3 28  1  0
  3 29  1  0
  4 30  1  0
  4 31  1  0
  4 32  1  0
  8 33  1  0
  8 34  1  0
  9 35  1  0
  9 36  1  0
 10 37  1  0
 10 38  1  0
 11 39  1  0
 11 40  1  0
 12 41  1  0
 12 42  1  0
 13 43  1  0
 13 44  1  0
 17 45  1  0
 17 46  1  0
 17 47  1  0
 18 48  1  0
 18 49  1  0
 18 50  1  0
 19 51  1  0
 19 52  1  0
 19 53  1  0
 21 54  1  0
 21 55  1  0
 21 56  1  0
 22 57  1  0
 22 58  1  0
 22 59  1  0
 23 60  1  0
 23 61  1  0
 23 62  1  0
M  RAD  2  16   2  20   2
M  END
