
     RDKit          3D

 32 35  0  0  0  0  0  0  0  0999 V2000
   -2.4166    0.8975    2.6843 C   0  0  0  0  0  0  0  0  0  0  0  0
   -3.5028    1.4745    2.0340 C   0  0  0  0  0  0  0  0  0  0  0  0
   -3.5151    1.5441    0.6439 C   0  0  0  0  0  0  0  0  0  0  0  0
   -2.4265    1.0551   -0.0851 C   0  0  0  0  0  0  0  0  0  0  0  0
   -1.2891    0.5340    0.5489 C   0  0  0  0  0  0  0  0  0  0  0  0
   -1.3266    0.4210    1.9468 C   0  0  0  0  0  0  0  0  0  0  0  0
   -0.1363    0.0696   -0.2775 C   0  0  0  0  0  0  0  0  0  0  0  0
   -0.3324   -0.0483   -1.6141 C   0  0  0  0  0  0  0  0  0  0  0  0
   -1.5731    0.4501   -2.2756 C   0  0  0  0  0  0  0  0  0  0  0  0
   -1.7433    0.3682   -3.4885 O   0  0  0  0  0  0  0  0  0  0  0  0
   -2.5103    1.0327   -1.4767 N   0  0  0  0  0  0  0  0  0  0  0  0
    0.6737   -0.6922   -2.5373 C   0  0  0  0  0  0  0  0  0  0  0  0
    1.4901   -1.7588   -1.8047 C   0  0  0  0  0  0  0  0  0  0  0  0
    2.0327   -1.1871   -0.5231 C   0  0  0  0  0  0  0  0  0  0  0  0
    3.3084   -1.5509   -0.0692 C   0  0  0  0  0  0  0  0  0  0  0  0
    3.8399   -0.9562    1.0714 C   0  0  0  0  0  0  0  0  0  0  0  0
    3.1077    0.0123    1.7504 C   0  0  0  0  0  0  0  0  0  0  0  0
    1.8272    0.3615    1.3104 C   0  0  0  0  0  0  0  0  0  0  0  0
    1.2458   -0.2658    0.1989 C   0  0  0  0  0  0  0  0  0  0  0  0
   -2.4170    0.8073    3.7680 H   0  0  0  0  0  0  0  0  0  0  0  0
   -4.3493    1.8435    2.6072 H   0  0  0  0  0  0  0  0  0  0  0  0
   -4.3837    1.9576    0.1392 H   0  0  0  0  0  0  0  0  0  0  0  0
   -0.5211   -0.0620    2.4927 H   0  0  0  0  0  0  0  0  0  0  0  0
   -3.3410    1.3638   -1.9471 H   0  0  0  0  0  0  0  0  0  0  0  0
    1.3317    0.0868   -2.9432 H   0  0  0  0  0  0  0  0  0  0  0  0
    0.1821   -1.1783   -3.3878 H   0  0  0  0  0  0  0  0  0  0  0  0
    0.8678   -2.6312   -1.5694 H   0  0  0  0  0  0  0  0  0  0  0  0
    2.3038   -2.0964   -2.4573 H   0  0  0  0  0  0  0  0  0  0  0  0
    3.9003   -2.2811   -0.6161 H   0  0  0  0  0  0  0  0  0  0  0  0
    4.8342   -1.2291    1.4153 H   0  0  0  0  0  0  0  0  0  0  0  0
    3.5344    0.5051    2.6203 H   0  0  0  0  0  0  0  0  0  0  0  0
    1.3045    1.1528    1.8411 H   0  0  0  0  0  0  0  0  0  0  0  0
  1  2  2  0
  2  3  1  0
  3  4  2  0
  4  5  1  0
  5  6  2  0
  5  7  1  0
  7  8  2  0
  8  9  1  0
  9 10  2  0
  9 11  1  0
  8 12  1  0
 12 13  1  0
 13 14  1  0
 14 15  2  0
 15 16  1  0
 16 17  2  0
 17 18  1  0
 18 19  2  0
  6  1  1  0
 19  7  1  0
 11  4  1  0
 19 14  1  0
  1 20  1  0
  2 21  1  0
  3 22  1  0
  6 23  1  0
 11 24  1  0
 12 25  1  0
 12 26  1  0
 13 27  1  0
 13 28  1  0
 15 29  1  0
 16 30  1  0
 17 31  1  0
 18 32  1  0
M  END
