
 OpenBabel09252514343D

 32 34  0  0  0  0  0  0  0  0999 V2000
    1.0478    0.0707    0.0521 C   0  0  0  0  0  0  0  0  0  0  0  0
    0.5411   -0.0533    1.4798 C   0  0  0  0  0  0  0  0  0  0  0  0
    1.0478    1.1211    2.3010 C   0  0  0  0  0  0  0  0  0  0  0  0
    0.1637    1.9685    2.8936 C   0  0  0  0  0  0  0  0  0  0  0  0
   -0.9789   -0.0533    1.4798 C   0  0  0  0  0  0  0  0  0  0  0  0
   -1.4689   -1.1891    0.6855 N   0  0  0  0  0  0  0  0  0  0  0  0
   -1.1619   -1.2841   -0.5441 N   0  0  0  0  0  0  0  0  0  0  0  0
   -0.4312   -0.3972   -1.0870 N   0  0  0  0  0  2  0  0  0  0  0  0
   -1.4856   -0.1773    2.9075 C   0  0  0  0  0  0  0  0  0  0  0  0
   -1.6494   -1.3100    3.5702 C   0  0  0  0  0  0  0  0  0  0  0  0
   -2.1438   -0.9249    4.9177 C   0  0  0  0  0  0  0  0  0  0  0  0
   -2.2156    0.3956    4.9132 C   0  0  0  0  0  0  0  0  0  0  0  0
   -2.6636    1.2621    6.0789 C   0  0  0  0  0  0  0  0  0  0  0  0
   -1.8274    0.8447    3.7086 Fe  0  0  0  0  0  0  0  0  0  0  0  0
   -3.3695    1.1803    2.3537 C   0  0  0  0  0  0  0  0  0  0  0  0
   -4.2725    1.3769    1.5603 O   0  0  0  0  0  0  0  0  0  0  0  0
   -1.7952    0.7430    1.6314 C   0  0  0  0  0  0  0  0  0  0  0  0
   -1.7763    0.6834    0.4149 O   0  0  0  0  0  0  0  0  0  0  0  0
   -3.5254    0.7115    2.5147 C   0  0  0  0  0  0  0  0  0  0  0  0
   -4.5197    0.6335    1.8154 O   0  0  0  0  0  0  0  0  0  0  0  0
    0.6911    0.9848   -0.3748 H   0  0  0  0  0  0  0  0  0  0  0  0
    0.6911   -0.7560   -0.5260 H   0  0  0  0  0  0  0  0  0  0  0  0
    2.1178    0.0707    0.0521 H   0  0  0  0  0  0  0  0  0  0  0  0
    0.8978   -0.9673    1.9067 H   0  0  0  0  0  0  0  0  0  0  0  0
    2.0998    1.2813    2.4131 H   0  0  0  0  0  0  0  0  0  0  0  0
    0.5204    2.7952    3.4717 H   0  0  0  0  0  0  0  0  0  0  0  0
   -0.8882    1.8083    2.7815 H   0  0  0  0  0  0  0  0  0  0  0  0
   -1.3355    0.8607    1.0529 H   0  0  0  0  0  0  0  0  0  0  0  0
   -1.5019   -2.0722   -1.0952 H   0  0  0  0  0  0  0  0  0  0  0  0
   -1.8706    1.9248    6.3562 H   0  0  0  0  0  0  0  0  0  0  0  0
   -3.5211    1.8331    5.7900 H   0  0  0  0  0  0  0  0  0  0  0  0
   -2.9145    0.6382    6.9113 H   0  0  0  0  0  0  0  0  0  0  0  0
  1  2  1  0  0  0  0
  1 21  1  0  0  0  0
  1 22  1  0  0  0  0
  1 23  1  0  0  0  0
  2  3  1  0  0  0  0
  2  5  1  0  0  0  0
  2 24  1  0  0  0  0
  3  4  2  0  0  0  0
  3 25  1  0  0  0  0
  4 26  1  0  0  0  0
  4 27  1  0  0  0  0
  5  6  1  0  0  0  0
  5  9  1  0  0  0  0
  5 28  1  0  0  0  0
  6  7  2  0  0  0  0
  7  8  2  0  0  0  0
  7 29  1  0  0  0  0
  9 10  2  0  0  0  0
  9 14  1  0  0  0  0
 10 11  1  0  0  0  0
 10 14  1  0  0  0  0
 11 12  2  0  0  0  0
 11 14  1  0  0  0  0
 12 13  1  0  0  0  0
 12 14  1  0  0  0  0
 13 30  1  0  0  0  0
 13 31  1  0  0  0  0
 13 32  1  0  0  0  0
 14 15  1  0  0  0  0
 14 17  1  0  0  0  0
 14 19  1  0  0  0  0
 15 16  3  0  0  0  0
 17 18  3  0  0  0  0
 19 20  3  0  0  0  0
M  END
$$$$
