
  --CCDC--092525    3D                              

 45 50  0  0  0  0  0  0  0  0999 V2000
    6.7894    1.4759   -1.4966 H      0
    6.5844    2.1149   -0.6418 C      0
    6.5070    1.4908    0.2457 H      0
    7.4399    2.7751   -0.5195 H      0
    5.0203    3.1068   -0.9009 Si     0
    3.6256    2.5947    0.1454 C      0
    3.0386    1.3239    0.0661 C      0
    2.1517   -0.5442   -0.1122 Cr     0
    2.3967    0.5611   -1.8460 C      0
    2.5314    1.1691   -2.7998 O      0
    4.1372   -0.3896   -0.6658 C      0
    5.2404   -0.3478   -0.9422 O      0
    0.2943   -0.3636    0.1392 C      0
    0.7806    0.5494   -0.3949 H      0
    1.0629   -0.2935    1.4817 C      0
    1.7461    0.5980    1.8798 H      0
    2.1918   -1.2739    1.6672 C      0
    3.3616   -1.0567    1.7827 H      0
    2.4675   -2.3098    0.6023 C      0
    3.4592   -2.4383   -0.0489 H      0
    1.6283   -2.3980   -0.6512 C      0
    1.9663   -2.2186   -1.7835 H      0
    0.6148   -1.4281   -0.8469 C      0
    1.2569   -0.8032   -1.5935 H      0
    3.0237    3.7617    1.3954 Si     0
    2.3615    5.3629    0.6927 C      0
    1.5573    5.1749   -0.0151 H      0
    3.1451    5.9169    0.1812 H      0
    1.9685    5.9943    1.4877 H      0
    4.3285    4.2927    2.6262 C      0
    4.2575    5.3595    2.8256 H      0
    4.2147    3.7745    3.5743 H      0
    5.3260    4.0893    2.2442 H      0
    1.6164    3.0513    2.4010 C      0
    0.8944    2.5559    1.7560 H      0
    1.0949    3.8305    2.9520 H      0
    1.9821    2.3193    3.1172 H      0
    5.5426    4.8650   -0.5458 C      0
    6.4845    5.0925   -1.0405 H      0
    5.6736    5.0194    0.5232 H      0
    4.7946    5.5684   -0.9054 H      0
    4.7252    3.0889   -2.7483 C      0
    4.7955    2.0757   -3.1401 H      0
    5.4611    3.7028   -3.2639 H      0
    3.7356    3.4744   -2.9862 H      0
  1  2  1
  2  3  1
  2  4  1
  2  5  1
  5  6  1
  6  7  4
  7  8  4
  8  9  1
  9 10  3
  8 11  1
 11 12  3
  8 13  1
 13 14  1
 13 15  4
  8 15  1
 15 16  1
 15 17  4
  8 17  1
 17 18  1
 17 19  4
  8 19  1
 19 20  1
 19 21  4
  8 21  1
 21 22  1
 21 23  4
 13 23  4
  8 23  1
 23 24  1
  6 25  1
 25 26  1
 26 27  1
 26 28  1
 26 29  1
 25 30  1
 30 31  1
 30 32  1
 30 33  1
 25 34  1
 34 35  1
 34 36  1
 34 37  1
  5 38  1
 38 39  1
 38 40  1
 38 41  1
  5 42  1
 42 43  1
 42 44  1
 42 45  1
M  END
$$$$
