
  --CCDC--092525    3D                              

 42 41  0  0  0  0  0  0  0  0999 V2000
    0.0341    0.1410    0.0745 C      0
    1.9191   -0.0207   -0.6901 Pt     0
    2.4425    1.7368    0.2003 C      0
    1.4213   -1.7814   -1.5916 C      0
    3.8047   -0.1782   -1.4524 N      0
    4.1107   -1.1580   -2.1756 N      3
    4.2800   -2.0026   -2.9277 N      5
    2.6148   -1.2266    1.2796 P      0
    1.6127   -2.7187    1.4822 C      0
    2.4320   -0.1954    2.7555 C      0
    4.3522   -1.7062    1.1180 C      0
    1.2233    1.1851   -2.6599 P      0
   -0.1372    0.3154   -3.4750 C      0
    2.6100    1.3155   -3.8152 C      0
    0.6728    2.8528   -2.2232 C      0
   -0.4289    1.0546   -0.2922 H      0
   -0.5613   -0.7158   -0.2334 H      0
    0.0849    0.1730    1.1605 H      0
    1.5876    2.1359    0.7425 H      0
    2.7563    2.4476   -0.5607 H      0
    3.2649    1.5611    0.8900 H      0
    0.3823   -2.0214   -1.3757 H      0
    2.0640   -2.5740   -1.2142 H      0
    1.5554   -1.6872   -2.6670 H      0
    1.7104   -3.3682    0.6151 H      0
    0.5617   -2.4634    1.5986 H      0
    1.9244   -3.2789    2.3612 H      0
    1.3930    0.0945    2.8987 H      0
    3.0286    0.7104    2.6685 H      0
    2.7593   -0.7307    3.6451 H      0
    4.4964   -2.3457    0.2495 H      0
    4.6886   -2.2503    1.9982 H      0
    4.9853   -0.8290    1.0015 H      0
   -0.4529    0.8433   -4.3725 H      0
   -0.9950    0.2345   -2.8109 H      0
    0.1657   -0.6890   -3.7626 H      0
    2.9553    0.3284   -4.1160 H      0
    3.4453    1.8415   -3.3575 H      0
    2.3195    1.8596   -4.7117 H      0
    0.3740    3.4075   -3.1109 H      0
    1.4718    3.4057   -1.7336 H      0
   -0.1783    2.8146   -1.5461 H      0
  1  2  1
  2  3  1
  2  4  1
  2  5  1
  5  6  2
  6  7  2
  2  8  1
  8  9  1
  8 10  1
  8 11  1
  2 12  1
 12 13  1
 12 14  1
 12 15  1
  1 16  1
  1 17  1
  1 18  1
  3 19  1
  3 20  1
  3 21  1
  4 22  1
  4 23  1
  4 24  1
  9 25  1
  9 26  1
  9 27  1
 10 28  1
 10 29  1
 10 30  1
 11 31  1
 11 32  1
 11 33  1
 13 34  1
 13 35  1
 13 36  1
 14 37  1
 14 38  1
 14 39  1
 15 40  1
 15 41  1
 15 42  1
M  CHG  2   6   1   7  -1
M  END
$$$$
