
     RDKit          3D

 42 41  0  0  0  0  0  0  0  0999 V2000
    0.0138   -0.1563   -1.8823 C   0  0  0  0  0  0  0  0  0  0  0  0
   -0.0186    0.0550   -0.0515 Pt  0  0  0  0  0  6  0  0  0  0  0  0
   -0.1207    0.9476    1.5381 C   0  0  0  0  0  0  0  0  0  0  0  0
    0.1301   -1.7768    0.4354 C   0  0  0  0  0  0  0  0  0  0  0  0
   -0.2537    1.6218   -0.6297 N   0  0  0  0  0  0  0  0  0  0  0  0
    0.0147    2.7022   -0.9151 N   0  0  0  0  0  4  0  0  0  0  0  0
    0.5543    3.6459   -1.4161 N   0  0  0  0  0  2  0  0  0  0  0  0
   -2.0984   -0.1113   -0.0079 P   0  0  0  0  0  4  0  0  0  0  0  0
   -3.0656    1.2959   -0.2350 C   0  0  0  0  0  0  0  0  0  0  0  0
   -2.7285   -0.8951    1.5585 C   0  0  0  0  0  0  0  0  0  0  0  0
   -2.7383   -1.3685   -1.1552 C   0  0  0  0  0  0  0  0  0  0  0  0
    2.0727    0.1401    0.0657 P   0  0  0  0  0  4  0  0  0  0  0  0
    2.9019   -0.9785   -1.0621 C   0  0  0  0  0  0  0  0  0  0  0  0
    2.7577   -0.3937    1.6899 C   0  0  0  0  0  0  0  0  0  0  0  0
    2.7616    1.7389   -0.2049 C   0  0  0  0  0  0  0  0  0  0  0  0
    0.8488    0.1505   -2.5925 H   0  0  0  0  0  0  0  0  0  0  0  0
   -0.8344   -0.0992   -2.6188 H   0  0  0  0  0  0  0  0  0  0  0  0
    0.1794   -1.2554   -2.1902 H   0  0  0  0  0  0  0  0  0  0  0  0
    0.6485    1.6509    1.9968 H   0  0  0  0  0  0  0  0  0  0  0  0
   -0.9928    1.4811    2.0223 H   0  0  0  0  0  0  0  0  0  0  0  0
   -0.0394    0.2330    2.4437 H   0  0  0  0  0  0  0  0  0  0  0  0
    0.0961   -2.0119    1.4882 H   0  0  0  0  0  0  0  0  0  0  0  0
    0.9456   -2.4106    0.0247 H   0  0  0  0  0  0  0  0  0  0  0  0
   -0.6432   -2.4973    0.0153 H   0  0  0  0  0  0  0  0  0  0  0  0
   -3.4198    1.4149   -1.3056 H   0  0  0  0  0  0  0  0  0  0  0  0
   -3.8688    1.3927    0.4716 H   0  0  0  0  0  0  0  0  0  0  0  0
   -2.4513    2.2385   -0.0962 H   0  0  0  0  0  0  0  0  0  0  0  0
   -3.7964   -0.8680    1.4326 H   0  0  0  0  0  0  0  0  0  0  0  0
   -2.4240   -0.2769    2.4318 H   0  0  0  0  0  0  0  0  0  0  0  0
   -2.3278   -1.9258    1.6472 H   0  0  0  0  0  0  0  0  0  0  0  0
   -2.4952   -1.1961   -2.2001 H   0  0  0  0  0  0  0  0  0  0  0  0
   -2.4741   -2.4020   -0.8730 H   0  0  0  0  0  0  0  0  0  0  0  0
   -3.8052   -1.2783   -1.0391 H   0  0  0  0  0  0  0  0  0  0  0  0
    2.9767   -2.0042   -0.6585 H   0  0  0  0  0  0  0  0  0  0  0  0
    2.3831   -1.0779   -2.0379 H   0  0  0  0  0  0  0  0  0  0  0  0
    3.8800   -0.5876   -1.2631 H   0  0  0  0  0  0  0  0  0  0  0  0
    3.8117   -0.2418    1.5420 H   0  0  0  0  0  0  0  0  0  0  0  0
    2.5013   -1.4407    1.8960 H   0  0  0  0  0  0  0  0  0  0  0  0
    2.3505    0.3203    2.4223 H   0  0  0  0  0  0  0  0  0  0  0  0
    2.7696    2.0554   -1.2737 H   0  0  0  0  0  0  0  0  0  0  0  0
    3.7744    1.6957    0.1596 H   0  0  0  0  0  0  0  0  0  0  0  0
    2.2234    2.4735    0.4271 H   0  0  0  0  0  0  0  0  0  0  0  0
  1  2  1  0
  2  3  1  0
  2  4  1  0
  2  5  1  0
  5  6  2  0
  6  7  2  0
  2  8  1  0
  8  9  1  0
  8 10  1  0
  8 11  1  0
  2 12  1  0
 12 13  1  0
 12 14  1  0
 12 15  1  0
  1 16  1  0
  1 17  1  0
  1 18  1  0
  3 19  1  0
  3 20  1  0
  3 21  1  0
  4 22  1  0
  4 23  1  0
  4 24  1  0
  9 25  1  0
  9 26  1  0
  9 27  1  0
 10 28  1  0
 10 29  1  0
 10 30  1  0
 11 31  1  0
 11 32  1  0
 11 33  1  0
 13 34  1  0
 13 35  1  0
 13 36  1  0
 14 37  1  0
 14 38  1  0
 14 39  1  0
 15 40  1  0
 15 41  1  0
 15 42  1  0
M  CHG  2   6   1   7  -1
M  RAD  2   8   2  12   2
M  END
