
  --CCDC--092525    3D                              

 44 43  0  0  0  0  0  0  0  0999 V2000
    0.3071    0.5283   -0.4711 H      0
    0.7077    1.4752   -0.1174 C      0
    1.1495    1.9837   -0.9701 H      0
    1.5204    1.2289    0.5631 H      0
   -0.5187    2.5281    0.7376 P      0
   -0.6558    1.2352    2.0316 C      0
    0.3406    0.8850    2.2945 H      0
   -1.2109    0.3638    1.6912 H      0
   -1.1105    1.5665    2.9630 H      0
    0.8768    3.6520    0.3993 C      0
    0.9445    3.9194   -0.6523 H      0
    1.8147    3.1730    0.6684 H      0
    0.8259    4.5698    0.9794 H      0
   -1.9210    3.0071   -0.0447 O      0
   -1.1973    2.9829   -1.1639 N      0
   -1.0100    2.1122   -2.0585 N      3
   -0.7360    1.4441   -2.9430 N      5
   -2.6357    3.2435    1.1879 C      0
   -3.6458    2.8409    1.2303 H      0
   -2.7608    4.2967    1.4228 H      0
   -2.1598    2.8987    2.0845 H      0
   -2.3068    1.6191   -0.0578 C      0
   -2.8818    1.2937   -0.9014 H      0
   -2.8402    1.2694    0.8202 H      0
   -1.4876    0.9336   -0.1445 H      0
   -1.5386    4.3825   -0.0316 C      0
   -2.3132    5.1048   -0.2203 H      0
   -0.8676    4.5753   -0.8659 H      0
   -1.0911    4.7357    0.8943 H      0
   -3.3087    3.3820   -0.8914 P      0
   -3.9273    2.3215   -2.2407 C      0
   -4.5422    2.9040   -2.9201 H      0
   -4.5752    1.5378   -1.8563 H      0
   -3.1503    1.8586   -2.8353 H      0
   -2.9117    4.3286   -2.3977 C      0
   -3.8232    4.7338   -2.8304 H      0
   -2.4484    3.7003   -3.1529 H      0
   -2.2527    5.1741   -2.2223 H      0
   -4.5087    4.5363   -0.1249 C      0
   -5.1456    4.9734   -0.8958 H      0
   -5.1632    4.0063    0.5695 H      0
   -4.0535    5.3620    0.4224 H      0
   -0.3010    3.3112    1.8786 H      0
   -4.2894    2.4576   -0.5082 H      0
  1  2  1
  2  3  1
  2  4  1
  2  5  1
  5  6  1
  6  7  1
  6  8  1
  6  9  1
  5 10  1
 10 11  1
 10 12  1
 10 13  1
  5 14  1
 14 15  1
 15 16  2
 16 17  2
 14 18  1
 18 19  1
 18 20  1
 18 21  1
 14 22  1
 22 23  1
 22 24  1
 22 25  1
 14 26  1
 26 27  1
 26 28  1
 26 29  1
 14 30  1
 30 31  1
 31 32  1
 31 33  1
 31 34  1
 30 35  1
 35 36  1
 35 37  1
 35 38  1
 30 39  1
 39 40  1
 39 41  1
 39 42  1
  5 43  1
 30 44  1
M  CHG  2  16   1  17  -1
M  END
$$$$
