
     RDKit          3D

 26 26  0  0  0  0  0  0  0  0999 V2000
   -3.4488    0.4315    1.4667 C   0  0  0  0  0  0  0  0  0  0  0  0
   -2.8248    0.3571    0.0785 C   0  0  0  0  0  0  0  0  0  0  0  0
   -3.4715   -0.7504   -0.7454 C   0  0  0  0  0  0  0  0  0  0  0  0
   -1.4250    0.0691    0.2582 O   0  0  0  0  0  0  0  0  0  0  0  0
   -0.6028    0.4551   -0.7476 C   0  0  0  0  0  0  0  0  0  0  0  0
   -0.9378    1.0181   -1.7771 O   0  0  0  0  0  0  0  0  0  0  0  0
    0.8082    0.0952   -0.4346 C   0  0  0  0  0  0  0  0  0  0  0  0
    1.1744   -0.5526    0.7555 C   0  0  0  0  0  0  0  0  0  0  0  0
    2.5147   -0.8705    1.0042 C   0  0  0  0  0  0  0  0  0  0  0  0
    3.4933   -0.5386    0.0573 C   0  0  0  0  0  0  0  0  0  0  0  0
    3.1396    0.1079   -1.1341 C   0  0  0  0  0  0  0  0  0  0  0  0
    1.7979    0.4222   -1.3750 C   0  0  0  0  0  0  0  0  0  0  0  0
    4.9004   -0.8713    0.3163 N   0  0  0  0  0  0  0  0  0  0  0  0
    5.7341   -0.5608   -0.5460 O   0  0  0  0  0  0  0  0  0  0  0  0
    5.1696   -1.4430    1.3823 O   0  0  0  0  0  0  0  0  0  0  0  0
   -4.5198    0.6486    1.4108 H   0  0  0  0  0  0  0  0  0  0  0  0
   -3.3078   -0.5079    2.0128 H   0  0  0  0  0  0  0  0  0  0  0  0
   -2.9645    1.2150    2.0597 H   0  0  0  0  0  0  0  0  0  0  0  0
   -2.9568    1.3281   -0.4144 H   0  0  0  0  0  0  0  0  0  0  0  0
   -4.5474   -0.5844   -0.8569 H   0  0  0  0  0  0  0  0  0  0  0  0
   -3.0266   -0.8044   -1.7443 H   0  0  0  0  0  0  0  0  0  0  0  0
   -3.3130   -1.7289   -0.2787 H   0  0  0  0  0  0  0  0  0  0  0  0
    0.4261   -0.8167    1.5002 H   0  0  0  0  0  0  0  0  0  0  0  0
    2.7753   -1.3729    1.9342 H   0  0  0  0  0  0  0  0  0  0  0  0
    3.8873    0.3725   -1.8796 H   0  0  0  0  0  0  0  0  0  0  0  0
    1.5260    0.9251   -2.3028 H   0  0  0  0  0  0  0  0  0  0  0  0
  1  2  1  0
  2  3  1  0
  2  4  1  0
  4  5  1  0
  5  6  2  0
  5  7  1  0
  7  8  2  0
  8  9  1  0
  9 10  2  0
 10 11  1  0
 11 12  2  0
 10 13  1  0
 13 14  1  0
 13 15  2  0
 12  7  1  0
  1 16  1  0
  1 17  1  0
  1 18  1  0
  2 19  1  0
  3 20  1  0
  3 21  1  0
  3 22  1  0
  8 23  1  0
  9 24  1  0
 11 25  1  0
 12 26  1  0
M  CHG  2  13   1  14  -1
M  END
