
     RDKit          3D

 29 30  0  0  0  0  0  0  0  0999 V2000
    2.1604    0.3812   -0.5920 C   0  0  0  0  0  0  0  0  0  0  0  0
    1.1206   -0.1625    0.2609 N   0  0  0  0  0  0  0  0  0  0  0  0
   -0.0287   -0.7425   -0.3448 C   0  0  0  0  0  0  0  0  0  0  0  0
    0.0044   -2.4226   -1.4948 Au  0  0  0  0  0  3  0  0  0  0  0  0
    1.9330   -3.3701   -1.8000 Cl  0  0  0  0  0  0  0  0  0  0  0  0
   -1.3405   -0.2667   -0.2533 N   0  0  0  0  0  0  0  0  0  0  0  0
   -1.6470    1.1475   -0.2274 C   0  0  0  0  0  0  0  0  0  0  0  0
   -2.9562    1.2683   -1.0078 C   0  0  0  0  0  0  0  0  0  0  0  0
   -3.6614    0.0020   -0.5968 C   0  0  0  0  0  0  0  0  0  0  0  0
   -2.6002   -0.9804   -0.1696 C   0  0  0  0  0  0  0  0  0  0  0  0
    1.5939    0.0614    1.6078 C   0  0  0  0  0  0  0  0  0  0  0  0
    3.0817   -0.2079    1.5585 C   0  0  0  0  0  0  0  0  0  0  0  0
    3.4426    0.2925    0.1763 C   0  0  0  0  0  0  0  0  0  0  0  0
    1.9869    1.4680   -0.8016 H   0  0  0  0  0  0  0  0  0  0  0  0
    2.2910   -0.1927   -1.5397 H   0  0  0  0  0  0  0  0  0  0  0  0
   -1.8778    1.4224    0.8259 H   0  0  0  0  0  0  0  0  0  0  0  0
   -0.8600    1.7909   -0.6197 H   0  0  0  0  0  0  0  0  0  0  0  0
   -3.5540    2.1148   -0.6736 H   0  0  0  0  0  0  0  0  0  0  0  0
   -2.7684    1.2807   -2.1047 H   0  0  0  0  0  0  0  0  0  0  0  0
   -4.3667    0.1586    0.2481 H   0  0  0  0  0  0  0  0  0  0  0  0
   -4.2619   -0.4449   -1.4311 H   0  0  0  0  0  0  0  0  0  0  0  0
   -2.7891   -1.3555    0.8517 H   0  0  0  0  0  0  0  0  0  0  0  0
   -2.5271   -1.7976   -0.9332 H   0  0  0  0  0  0  0  0  0  0  0  0
    1.1108   -0.6106    2.3442 H   0  0  0  0  0  0  0  0  0  0  0  0
    1.4285    1.1294    1.8259 H   0  0  0  0  0  0  0  0  0  0  0  0
    3.3142   -1.2811    1.6965 H   0  0  0  0  0  0  0  0  0  0  0  0
    3.6274    0.3949    2.3333 H   0  0  0  0  0  0  0  0  0  0  0  0
    4.1917   -0.3669   -0.3076 H   0  0  0  0  0  0  0  0  0  0  0  0
    3.9519    1.2897    0.2894 H   0  0  0  0  0  0  0  0  0  0  0  0
  1  2  1  0
  2  3  1  0
  3  4  2  3
  4  5  1  0
  3  6  1  0
  6  7  1  0
  7  8  1  0
  8  9  1  0
  9 10  1  0
  2 11  1  0
 11 12  1  0
 12 13  1  0
 13  1  1  0
 10  6  1  0
  1 14  1  0
  1 15  1  0
  7 16  1  0
  7 17  1  0
  8 18  1  0
  8 19  1  0
  9 20  1  0
  9 21  1  0
 10 22  1  0
 10 23  1  0
 11 24  1  0
 11 25  1  0
 12 26  1  0
 12 27  1  0
 13 28  1  0
 13 29  1  0
M  END
