
     RDKit          3D

 35 38  0  0  0  0  0  0  0  0999 V2000
   -3.2453   -2.1818    0.3589 C   0  0  0  0  0  0  0  0  0  0  0  0
   -1.8719   -1.9141    0.3679 C   0  0  0  0  0  0  0  0  0  0  0  0
   -1.3811   -0.6007    0.2842 C   0  0  0  0  0  0  0  0  0  0  0  0
    0.0357   -0.3179    0.2744 N   0  0  0  0  0  0  0  0  0  0  0  0
    0.5252    0.9109    0.7120 C   0  0  0  0  0  0  0  0  0  0  0  0
   -0.1147    1.7615    1.3274 O   0  0  0  0  0  0  0  0  0  0  0  0
    1.9428    1.2324    0.3019 C   0  0  2  0  0  0  0  0  0  0  0  0
    2.0338    1.5035   -1.2194 C   0  0  0  0  0  0  0  0  0  0  0  0
    3.1601    0.5398   -1.6223 C   0  0  2  0  0  0  0  0  0  0  0  0
    3.8933    0.9962   -3.3237 Br  0  0  0  0  0  0  0  0  0  0  0  0
    2.5805   -0.7830   -1.6023 O   0  0  0  0  0  0  0  0  0  0  0  0
    2.4305   -1.1223   -0.2051 C   0  0  2  0  0  0  0  0  0  0  0  0
    3.3533   -2.6221    0.1096 Cl  0  0  0  0  0  0  0  0  0  0  0  0
    0.9634   -1.4452    0.1340 C   0  0  0  0  0  0  0  0  0  0  0  0
    2.9856    0.1126    0.5171 C   0  0  1  0  0  0  0  0  0  0  0  0
    4.0859    0.6363   -0.4161 C   0  0  1  0  0  0  0  0  0  0  0  0
    5.9300   -0.3432   -0.4333 I   0  0  0  0  0  0  0  0  0  0  0  0
   -2.3259    0.4318    0.1621 C   0  0  0  0  0  0  0  0  0  0  0  0
   -3.7113    0.1783    0.1424 C   0  0  0  0  0  0  0  0  0  0  0  0
   -4.6898    1.3217    0.0347 C   0  0  0  0  0  0  0  0  0  0  0  0
   -4.9693    1.8844    1.2419 F   0  0  0  0  0  0  0  0  0  0  0  0
   -5.8919    0.9468   -0.4883 F   0  0  0  0  0  0  0  0  0  0  0  0
   -4.2438    2.3340   -0.7604 F   0  0  0  0  0  0  0  0  0  0  0  0
   -4.1616   -1.1409    0.2528 C   0  0  0  0  0  0  0  0  0  0  0  0
   -3.5974   -3.2079    0.4399 H   0  0  0  0  0  0  0  0  0  0  0  0
   -1.2106   -2.7694    0.4699 H   0  0  0  0  0  0  0  0  0  0  0  0
    2.2547    2.1294    0.8544 H   0  0  0  0  0  0  0  0  0  0  0  0
    2.3000    2.5534   -1.3922 H   0  0  0  0  0  0  0  0  0  0  0  0
    1.0981    1.2948   -1.7505 H   0  0  0  0  0  0  0  0  0  0  0  0
    0.9246   -1.9721    1.0969 H   0  0  0  0  0  0  0  0  0  0  0  0
    0.5781   -2.0999   -0.6579 H   0  0  0  0  0  0  0  0  0  0  0  0
    3.2492   -0.0394    1.5666 H   0  0  0  0  0  0  0  0  0  0  0  0
    4.3237    1.6870   -0.1946 H   0  0  0  0  0  0  0  0  0  0  0  0
   -2.0059    1.4671    0.0538 H   0  0  0  0  0  0  0  0  0  0  0  0
   -5.2280   -1.3619    0.2513 H   0  0  0  0  0  0  0  0  0  0  0  0
  1  2  2  0
  2  3  1  0
  3  4  1  0
  4  5  1  0
  5  6  2  0
  5  7  1  0
  7  8  1  0
  8  9  1  0
  9 10  1  6
  9 11  1  0
 11 12  1  0
 12 13  1  6
 12 14  1  0
 12 15  1  0
 15 16  1  0
 16 17  1  0
  3 18  2  0
 18 19  1  0
 19 20  1  0
 20 21  1  0
 20 22  1  0
 20 23  1  0
 19 24  2  0
 24  1  1  0
 14  4  1  0
 15  7  1  0
 16  9  1  0
  1 25  1  0
  2 26  1  0
  7 27  1  1
  8 28  1  0
  8 29  1  0
 14 30  1  0
 14 31  1  0
 15 32  1  1
 16 33  1  1
 18 34  1  0
 24 35  1  0
M  END
