
 OpenBabel09252516033D

 57 60  0  0  0  0  0  0  0  0999 V2000
    1.3135   -0.0258    1.4463 H   0  0  0  0  0  0  0  0  0  0  0  0
    1.8382   -0.0394    0.4981 C   0  0  0  0  0  3  0  0  0  0  0  0
    1.8592   -1.2605   -0.2920 C   0  0  0  0  0  3  0  0  0  0  0  0
    1.4136   -2.1611    0.1151 H   0  0  0  0  0  0  0  0  0  0  0  0
    2.7553   -1.3699   -1.4354 C   0  0  0  0  0  3  0  0  0  0  0  0
    2.9569   -2.3542   -1.8429 H   0  0  0  0  0  0  0  0  0  0  0  0
    3.6374   -0.2587   -1.7981 C   0  0  0  0  0  3  0  0  0  0  0  0
    4.6864   -0.5664   -2.6893 N   0  0  0  0  0  0  0  0  0  0  0  0
    4.7624   -0.2496   -4.1042 C   0  0  0  0  0  0  0  0  0  0  0  0
    4.1409    0.8579   -4.5673 C   0  0  0  0  0  0  0  0  0  0  0  0
    4.8883    1.7540   -5.4049 C   0  0  0  0  0  0  0  0  0  0  0  0
    5.5494    2.5196   -6.2276 C   0  0  0  0  0  0  0  0  0  0  0  0
    6.3202    3.4122   -7.1866 C   0  0  0  0  0  3  0  0  0  0  0  0
    5.6188    3.5249   -8.4856 C   0  0  0  0  0  3  0  0  0  0  0  0
    5.3852    2.6194   -9.0332 H   0  0  0  0  0  0  0  0  0  0  0  0
    4.8713    4.7474   -8.7804 C   0  0  0  0  0  3  0  0  0  0  0  0
    4.1024    4.7351   -9.5436 H   0  0  0  0  0  0  0  0  0  0  0  0
    4.9826    5.8964   -7.8893 C   0  0  0  0  0  3  0  0  0  0  0  0
    4.3179    6.7435   -8.0046 H   0  0  0  0  0  0  0  0  0  0  0  0
    5.9582    5.8800   -6.8074 C   0  0  0  0  0  3  0  0  0  0  0  0
    6.1620    6.7757   -6.2356 H   0  0  0  0  0  0  0  0  0  0  0  0
    6.7836    4.6910   -6.6124 C   0  0  0  0  0  3  0  0  0  0  0  0
    8.1213    4.9776   -6.4498 O   0  0  0  0  0  0  0  0  0  0  0  0
    9.0442    4.0378   -6.9882 C   0  0  0  0  0  0  0  0  0  0  0  0
    9.0894    3.1439   -6.3600 H   0  0  0  0  0  0  0  0  0  0  0  0
    8.8071    3.7772   -8.0260 H   0  0  0  0  0  0  0  0  0  0  0  0
   10.0329    4.5073   -6.9930 H   0  0  0  0  0  0  0  0  0  0  0  0
    2.2681    1.0624   -4.8128 Si  0  0  0  0  0  0  0  0  0  0  0  0
    1.5091   -0.6248   -5.1999 C   0  0  0  0  0  0  0  0  0  0  0  0
    1.6714   -1.3276   -4.3791 H   0  0  0  0  0  0  0  0  0  0  0  0
    0.4314   -0.5259   -5.3620 H   0  0  0  0  0  0  0  0  0  0  0  0
    1.9542   -1.0419   -6.1085 H   0  0  0  0  0  0  0  0  0  0  0  0
    1.3543    1.8066   -3.3615 C   0  0  0  0  0  0  0  0  0  0  0  0
    1.9145    2.6350   -2.9200 H   0  0  0  0  0  0  0  0  0  0  0  0
    0.3850    2.1970   -3.6896 H   0  0  0  0  0  0  0  0  0  0  0  0
    1.1498    1.0602   -2.5917 H   0  0  0  0  0  0  0  0  0  0  0  0
    1.9217    2.1908   -6.3058 C   0  0  0  0  0  0  0  0  0  0  0  0
    2.2996    3.2006   -6.1201 H   0  0  0  0  0  0  0  0  0  0  0  0
    2.3955    1.7949   -7.2088 H   0  0  0  0  0  0  0  0  0  0  0  0
    0.8438    2.2555   -6.4827 H   0  0  0  0  0  0  0  0  0  0  0  0
    6.0814   -0.6583   -4.6102 C   0  0  0  0  0  3  0  0  0  0  0  0
    6.4605   -1.0476   -5.9675 C   0  0  0  0  0  3  0  0  0  0  0  0
    5.6992   -1.2942   -6.6981 H   0  0  0  0  0  0  0  0  0  0  0  0
    7.8734   -1.2004   -6.2926 C   0  0  0  0  0  3  0  0  0  0  0  0
    8.1649   -1.5491   -7.2762 H   0  0  0  0  0  0  0  0  0  0  0  0
    8.8939   -0.9045   -5.2879 C   0  0  0  0  0  3  0  0  0  0  0  0
    9.8948   -0.6476   -5.6147 H   0  0  0  0  0  0  0  0  0  0  0  0
    8.5061   -0.6886   -3.8929 C   0  0  0  0  0  3  0  0  0  0  0  0
    9.1924   -0.2070   -3.2066 H   0  0  0  0  0  0  0  0  0  0  0  0
    7.0953   -0.7433   -3.5730 C   0  0  0  0  0  3  0  0  0  0  0  0
    6.3127   -0.5098   -2.0520 S   0  0  0  0  0  0  0  0  0  0  0  0
    6.6077    0.8304   -1.5787 O   0  0  0  0  0  0  0  0  0  0  0  0
    6.5156   -1.6691   -1.2098 O   0  0  0  0  0  0  0  0  0  0  0  0
    3.6203    0.9545   -0.9864 C   0  0  0  0  0  3  0  0  0  0  0  0
    4.2666    1.7893   -1.2276 H   0  0  0  0  0  0  0  0  0  0  0  0
    2.7080    1.0707    0.1433 C   0  0  0  0  0  3  0  0  0  0  0  0
    2.7493    1.9477    0.7776 H   0  0  0  0  0  0  0  0  0  0  0  0
  1  2  1  0  0  0  0
  2  3  1  0  0  0  0
  2 56  1  0  0  0  0
  3  4  1  0  0  0  0
  3  5  1  0  0  0  0
  5  6  1  0  0  0  0
  5  7  1  0  0  0  0
  7  8  1  0  0  0  0
  7 54  1  0  0  0  0
  8  9  1  0  0  0  0
  8 51  1  0  0  0  0
  9 10  2  0  0  0  0
  9 41  1  0  0  0  0
 10 11  1  0  0  0  0
 10 28  1  0  0  0  0
 11 12  3  0  0  0  0
 12 13  1  0  0  0  0
 13 14  1  0  0  0  0
 13 22  1  0  0  0  0
 14 15  1  0  0  0  0
 14 16  1  0  0  0  0
 16 17  1  0  0  0  0
 16 18  1  0  0  0  0
 18 19  1  0  0  0  0
 18 20  1  0  0  0  0
 20 21  1  0  0  0  0
 20 22  1  0  0  0  0
 22 23  1  0  0  0  0
 23 24  1  0  0  0  0
 24 25  1  0  0  0  0
 24 26  1  0  0  0  0
 24 27  1  0  0  0  0
 28 29  1  0  0  0  0
 28 33  1  0  0  0  0
 28 37  1  0  0  0  0
 29 30  1  0  0  0  0
 29 31  1  0  0  0  0
 29 32  1  0  0  0  0
 33 34  1  0  0  0  0
 33 35  1  0  0  0  0
 33 36  1  0  0  0  0
 37 38  1  0  0  0  0
 37 39  1  0  0  0  0
 37 40  1  0  0  0  0
 41 42  1  0  0  0  0
 41 50  1  0  0  0  0
 42 43  1  0  0  0  0
 42 44  1  0  0  0  0
 44 45  1  0  0  0  0
 44 46  1  0  0  0  0
 46 47  1  0  0  0  0
 46 48  1  0  0  0  0
 48 49  1  0  0  0  0
 48 50  1  0  0  0  0
 50 51  1  0  0  0  0
 51 52  2  0  0  0  0
 51 53  2  0  0  0  0
 54 55  1  0  0  0  0
 54 56  1  0  0  0  0
 56 57  1  0  0  0  0
M  END
$$$$
