
 OpenBabel09252514093D

114121  0  0  0  0  0  0  0  0999 V2000
    0.9299    0.0237   -0.0673 C   0  0  0  0  0  0  0  0  0  0  0  0
    0.4566    0.4031   -1.3512 O   0  0  0  0  0  0  0  0  0  0  0  0
    1.3489    0.0001   -2.2722 C   0  0  0  0  0  0  0  0  0  0  0  0
    1.4989    1.0255   -3.3007 C   0  0  0  0  0  0  0  0  0  0  0  0
    1.2232    2.3576   -2.5635 O   0  0  0  0  0  0  0  0  0  0  0  0
    0.5578    3.2867   -3.4065 C   0  0  0  0  0  0  0  0  0  0  0  0
    0.3163    1.8987   -1.4114 Eu  0  0  0  0  0  0  0  0  0  0  0  0
    2.8746    1.0840   -1.2461 N   0  0  0  0  0  0  0  0  0  0  0  0
    3.4955    0.6440   -2.3193 C   0  0  0  0  0  0  0  0  0  0  0  0
    4.2601    0.1023   -3.6408 S   0  0  0  0  0  0  0  0  0  0  0  0
   -0.6682    2.7392    0.9467 N   0  0  0  0  0  0  0  0  0  0  0  0
   -0.9640    1.7664    2.0083 C   0  0  0  0  0  0  0  0  0  0  0  0
   -0.0119    1.0026    2.4996 C   0  0  0  0  0  0  0  0  0  0  0  0
   -0.3008    0.2203    3.6124 C   0  0  0  0  0  0  0  0  0  0  0  0
   -1.3721    0.6513    4.4263 C   0  0  0  0  0  0  0  0  0  0  0  0
   -2.4487    1.2429    3.7679 C   0  0  0  0  0  0  0  0  0  0  0  0
   -2.2383    1.7830    2.5861 C   0  0  0  0  0  0  0  0  0  0  0  0
   -3.3928    2.4324    1.8406 C   0  0  0  0  0  0  0  0  0  0  0  0
   -4.4790    1.3991    1.5898 C   0  0  0  0  0  0  0  0  0  0  0  0
   -3.9586    3.5701    2.6747 C   0  0  0  0  0  0  0  0  0  0  0  0
    1.3697    0.9760    1.8664 C   0  0  0  0  0  0  0  0  0  0  0  0
    2.4043    1.4164    2.8891 C   0  0  0  0  0  0  0  0  0  0  0  0
    1.6866   -0.4358    1.4007 C   0  0  0  0  0  0  0  0  0  0  0  0
   -0.9103    4.1712    1.1737 C   0  0  0  0  0  0  0  0  0  0  0  0
   -0.3406    4.9664    2.0736 C   0  0  0  0  0  0  0  0  0  0  0  0
    0.3644   -0.1711    0.3060 N   0  0  0  0  0  0  0  0  0  0  0  0
   -0.8804   -0.6298    0.9392 C   0  0  0  0  0  0  0  0  0  0  0  0
   -1.8668   -1.0527    0.1781 C   0  0  0  0  0  0  0  0  0  0  0  0
   -3.0267   -1.5104    0.7938 C   0  0  0  0  0  0  0  0  0  0  0  0
   -2.8980   -1.9631    2.1259 C   0  0  0  0  0  0  0  0  0  0  0  0
   -1.9808   -1.2815    2.9238 C   0  0  0  0  0  0  0  0  0  0  0  0
   -1.0001   -0.6319    2.3333 C   0  0  0  0  0  0  0  0  0  0  0  0
    0.0141    0.1247    3.1755 C   0  0  0  0  0  0  0  0  0  0  0  0
   -0.6994    1.1897    3.9924 C   0  0  0  0  0  0  0  0  0  0  0  0
    0.7190   -0.8438    4.1112 C   0  0  0  0  0  0  0  0  0  0  0  0
   -1.7417   -1.0413   -1.3367 C   0  0  0  0  0  0  0  0  0  0  0  0
   -1.8916   -2.4575   -1.8682 C   0  0  0  0  0  0  0  0  0  0  0  0
   -2.8299   -0.1603   -1.9284 C   0  0  0  0  0  0  0  0  0  0  0  0
   -0.8414    6.3381    1.9248 C   0  0  0  0  0  0  0  0  0  0  0  0
   -0.6161    7.6371    2.5868 C   0  0  0  0  0  0  0  0  0  0  0  0
   -1.2757    8.7009    2.1620 C   0  0  0  0  0  0  0  0  0  0  0  0
   -2.2382    8.6383    1.0399 C   0  0  0  0  0  0  0  0  0  0  0  0
   -2.4381    7.4833    0.4517 C   0  0  0  0  0  0  0  0  0  0  0  0
   -3.3523    7.2286   -0.6748 C   0  0  0  0  0  0  0  0  0  0  0  0
   -3.4335    5.9988   -1.1486 C   0  0  0  0  0  0  0  0  0  0  0  0
   -2.6666    4.8571   -0.6235 C   0  0  0  0  0  0  0  0  0  0  0  0
   -1.8266    4.9965    0.3713 C   0  0  0  0  0  0  0  0  0  0  0  0
   -1.6918    6.3339    0.9492 C   0  0  0  0  0  0  0  0  0  0  0  0
    0.7063    2.5511   -0.1144 O   0  0  0  0  0  0  0  0  0  0  0  0
    1.8421    3.3775   -0.3225 C   0  0  0  0  0  0  0  0  0  0  0  0
   -0.3162    3.2991    0.3347 C   0  0  0  0  0  0  0  0  0  0  0  0
   -1.5635    2.8564   -0.2809 C   0  0  0  0  0  0  0  0  0  0  0  0
   -1.1436    2.3146   -1.6681 O   0  0  0  0  0  0  0  0  0  0  0  0
   -1.9388    1.2026   -2.0520 C   0  0  0  0  0  0  0  0  0  0  0  0
    0.5732   -0.9571    0.1688 H   0  0  0  0  0  0  0  0  0  0  0  0
    0.5732    0.7185    0.6641 H   0  0  0  0  0  0  0  0  0  0  0  0
    1.9999    0.0237   -0.0673 H   0  0  0  0  0  0  0  0  0  0  0  0
    1.0031   -0.9054   -2.7253 H   0  0  0  0  0  0  0  0  0  0  0  0
    2.2940   -0.1697   -1.8000 H   0  0  0  0  0  0  0  0  0  0  0  0
    2.4667    1.0057   -3.7567 H   0  0  0  0  0  0  0  0  0  0  0  0
    0.7914    0.8763   -4.0894 H   0  0  0  0  0  0  0  0  0  0  0  0
   -0.3152    2.8289   -3.8226 H   0  0  0  0  0  0  0  0  0  0  0  0
    0.2725    4.1455   -2.8356 H   0  0  0  0  0  0  0  0  0  0  0  0
    1.2148    3.5856   -4.1964 H   0  0  0  0  0  0  0  0  0  0  0  0
    0.2593   -0.6624    3.8404 H   0  0  0  0  0  0  0  0  0  0  0  0
   -1.3578    0.5303    5.4893 H   0  0  0  0  0  0  0  0  0  0  0  0
   -3.4221    1.2576    4.2120 H   0  0  0  0  0  0  0  0  0  0  0  0
   -3.0425    2.8159    0.9051 H   0  0  0  0  0  0  0  0  0  0  0  0
   -4.8293    1.0156    2.5253 H   0  0  0  0  0  0  0  0  0  0  0  0
   -5.2917    1.8562    1.0649 H   0  0  0  0  0  0  0  0  0  0  0  0
   -4.0807    0.5982    1.0026 H   0  0  0  0  0  0  0  0  0  0  0  0
   -3.1940    4.2974    2.8513 H   0  0  0  0  0  0  0  0  0  0  0  0
   -4.7714    4.0272    2.1499 H   0  0  0  0  0  0  0  0  0  0  0  0
   -4.3089    3.1865    3.6102 H   0  0  0  0  0  0  0  0  0  0  0  0
    1.3909    1.6412    1.0285 H   0  0  0  0  0  0  0  0  0  0  0  0
    2.3832    0.7513    3.7270 H   0  0  0  0  0  0  0  0  0  0  0  0
    3.3769    1.3977    2.4434 H   0  0  0  0  0  0  0  0  0  0  0  0
    2.1813    2.4102    3.2169 H   0  0  0  0  0  0  0  0  0  0  0  0
    0.9582   -0.7458    0.6807 H   0  0  0  0  0  0  0  0  0  0  0  0
    2.6591   -0.4545    0.9550 H   0  0  0  0  0  0  0  0  0  0  0  0
    1.6654   -1.1009    2.2386 H   0  0  0  0  0  0  0  0  0  0  0  0
   -3.9680   -1.5193    0.2849 H   0  0  0  0  0  0  0  0  0  0  0  0
   -3.4728   -2.7838    2.5013 H   0  0  0  0  0  0  0  0  0  0  0  0
   -2.0717   -1.2862    3.9900 H   0  0  0  0  0  0  0  0  0  0  0  0
    0.7340    0.5895    2.5348 H   0  0  0  0  0  0  0  0  0  0  0  0
   -1.4193    0.7249    4.6331 H   0  0  0  0  0  0  0  0  0  0  0  0
    0.0145    1.7223    4.5852 H   0  0  0  0  0  0  0  0  0  0  0  0
   -1.1957    1.8715    3.3337 H   0  0  0  0  0  0  0  0  0  0  0  0
    1.2213   -1.5935    3.5362 H   0  0  0  0  0  0  0  0  0  0  0  0
    1.4330   -0.3112    4.7040 H   0  0  0  0  0  0  0  0  0  0  0  0
   -0.0009   -1.3085    4.7519 H   0  0  0  0  0  0  0  0  0  0  0  0
   -0.7821   -0.6566   -1.6124 H   0  0  0  0  0  0  0  0  0  0  0  0
   -2.8512   -2.8422   -1.5925 H   0  0  0  0  0  0  0  0  0  0  0  0
   -1.8035   -2.4494   -2.9345 H   0  0  0  0  0  0  0  0  0  0  0  0
   -1.1255   -3.0776   -1.4517 H   0  0  0  0  0  0  0  0  0  0  0  0
   -2.7244    0.8366   -1.5542 H   0  0  0  0  0  0  0  0  0  0  0  0
   -2.7418   -0.1523   -2.9947 H   0  0  0  0  0  0  0  0  0  0  0  0
   -3.7895   -0.5451   -1.6526 H   0  0  0  0  0  0  0  0  0  0  0  0
    0.0731    7.7172    3.4013 H   0  0  0  0  0  0  0  0  0  0  0  0
   -1.1078    9.6401    2.6464 H   0  0  0  0  0  0  0  0  0  0  0  0
   -2.7590    9.5150    0.7159 H   0  0  0  0  0  0  0  0  0  0  0  0
   -3.9355    8.0196   -1.0981 H   0  0  0  0  0  0  0  0  0  0  0  0
   -4.0995    5.8205   -1.9669 H   0  0  0  0  0  0  0  0  0  0  0  0
   -2.7986    3.8914   -1.0648 H   0  0  0  0  0  0  0  0  0  0  0  0
    1.6074    4.1310   -1.0450 H   0  0  0  0  0  0  0  0  0  0  0  0
    2.1190    3.8424    0.6006 H   0  0  0  0  0  0  0  0  0  0  0  0
    2.6559    2.7818   -0.6800 H   0  0  0  0  0  0  0  0  0  0  0  0
   -0.1417    4.3236    0.0799 H   0  0  0  0  0  0  0  0  0  0  0  0
   -0.3897    3.1982    1.3974 H   0  0  0  0  0  0  0  0  0  0  0  0
   -2.2821    3.6458   -0.3542 H   0  0  0  0  0  0  0  0  0  0  0  0
   -2.0201    2.0851    0.3034 H   0  0  0  0  0  0  0  0  0  0  0  0
   -1.8262    0.4184   -1.3328 H   0  0  0  0  0  0  0  0  0  0  0  0
   -2.9661    1.4981   -2.0995 H   0  0  0  0  0  0  0  0  0  0  0  0
   -1.6234    0.8532   -3.0129 H   0  0  0  0  0  0  0  0  0  0  0  0
  1  2  1  0  0  0  0
  1 55  1  0  0  0  0
  1 56  1  0  0  0  0
  1 57  1  0  0  0  0
  2  3  1  0  0  0  0
  2  7  1  0  0  0  0
  3  4  1  0  0  0  0
  3 58  1  0  0  0  0
  3 59  1  0  0  0  0
  4  5  1  0  0  0  0
  4 60  1  0  0  0  0
  4 61  1  0  0  0  0
  5  6  1  0  0  0  0
  5  7  1  0  0  0  0
  6 62  1  0  0  0  0
  6 63  1  0  0  0  0
  6 64  1  0  0  0  0
  7  8  1  0  0  0  0
  7 11  1  0  0  0  0
  7 26  1  0  0  0  0
  7 49  1  0  0  0  0
  7 53  1  0  0  0  0
  8  9  2  0  0  0  0
  9 10  2  0  0  0  0
 11 12  1  0  0  0  0
 11 24  1  0  0  0  0
 12 13  1  0  0  0  0
 12 17  2  0  0  0  0
 13 14  2  0  0  0  0
 13 21  1  0  0  0  0
 14 15  1  0  0  0  0
 14 65  1  0  0  0  0
 15 16  2  0  0  0  0
 15 66  1  0  0  0  0
 16 17  1  0  0  0  0
 16 67  1  0  0  0  0
 17 18  1  0  0  0  0
 18 19  1  0  0  0  0
 18 20  1  0  0  0  0
 18 68  1  0  0  0  0
 19 69  1  0  0  0  0
 19 70  1  0  0  0  0
 19 71  1  0  0  0  0
 20 72  1  0  0  0  0
 20 73  1  0  0  0  0
 20 74  1  0  0  0  0
 21 22  1  0  0  0  0
 21 23  1  0  0  0  0
 21 75  1  0  0  0  0
 22 76  1  0  0  0  0
 22 77  1  0  0  0  0
 22 78  1  0  0  0  0
 23 79  1  0  0  0  0
 23 80  1  0  0  0  0
 23 81  1  0  0  0  0
 24 25  2  0  0  0  0
 24 47  1  0  0  0  0
 25 26  1  0  0  0  0
 25 39  1  0  0  0  0
 26 27  1  0  0  0  0
 27 28  1  0  0  0  0
 27 32  2  0  0  0  0
 28 29  2  0  0  0  0
 28 36  1  0  0  0  0
 29 30  1  0  0  0  0
 29 82  1  0  0  0  0
 30 31  2  0  0  0  0
 30 83  1  0  0  0  0
 31 32  1  0  0  0  0
 31 84  1  0  0  0  0
 32 33  1  0  0  0  0
 33 34  1  0  0  0  0
 33 35  1  0  0  0  0
 33 85  1  0  0  0  0
 34 86  1  0  0  0  0
 34 87  1  0  0  0  0
 34 88  1  0  0  0  0
 35 89  1  0  0  0  0
 35 90  1  0  0  0  0
 35 91  1  0  0  0  0
 36 37  1  0  0  0  0
 36 38  1  0  0  0  0
 36 92  1  0  0  0  0
 37 93  1  0  0  0  0
 37 94  1  0  0  0  0
 37 95  1  0  0  0  0
 38 96  1  0  0  0  0
 38 97  1  0  0  0  0
 38 98  1  0  0  0  0
 39 40  1  0  0  0  0
 39 48  2  0  0  0  0
 40 41  2  0  0  0  0
 40 99  1  0  0  0  0
 41 42  1  0  0  0  0
 41100  1  0  0  0  0
 42 43  2  0  0  0  0
 42101  1  0  0  0  0
 43 44  1  0  0  0  0
 43 48  1  0  0  0  0
 44 45  2  0  0  0  0
 44102  1  0  0  0  0
 45 46  1  0  0  0  0
 45103  1  0  0  0  0
 46 47  2  0  0  0  0
 46104  1  0  0  0  0
 47 48  1  0  0  0  0
 49 50  1  0  0  0  0
 49 51  1  0  0  0  0
 50105  1  0  0  0  0
 50106  1  0  0  0  0
 50107  1  0  0  0  0
 51 52  1  0  0  0  0
 51108  1  0  0  0  0
 51109  1  0  0  0  0
 52 53  1  0  0  0  0
 52110  1  0  0  0  0
 52111  1  0  0  0  0
 53 54  1  0  0  0  0
 54112  1  0  0  0  0
 54113  1  0  0  0  0
 54114  1  0  0  0  0
M  END
$$$$
