
 OpenBabel09252516033D

 32 35  0  0  0  0  0  0  0  0999 V2000
    1.0691    0.1052    0.0057 O   0  0  0  0  0  0  0  0  0  0  0  0
    2.2923    0.1452    0.0694 C   0  0  0  0  0  0  0  0  0  0  0  0
    2.9353    1.3071    0.3603 N   0  0  0  0  0  0  0  0  0  0  0  0
    4.3111    1.4619    0.2264 C   0  0  0  0  0  0  0  0  0  0  0  0
    4.8451    2.7470    0.3760 C   0  0  0  0  0  0  0  0  0  0  0  0
    6.1844    2.9739    0.0865 C   0  0  0  0  0  0  0  0  0  0  0  0
    6.9581    1.9312   -0.4091 C   0  0  0  0  0  0  0  0  0  0  0  0
    6.4097    0.6483   -0.5509 C   0  0  0  0  0  0  0  0  0  0  0  0
    5.0975    0.3607   -0.1490 C   0  0  0  0  0  0  0  0  0  0  0  0
    4.4963   -1.0211   -0.1243 C   0  0  0  0  0  0  0  0  0  0  0  0
    3.1421   -1.0799   -0.0877 C   0  0  0  0  0  0  0  0  0  0  0  0
    2.3070   -2.3274   -0.1211 C   0  0  0  0  0  0  0  0  0  0  0  0
    3.0437   -3.6432   -0.2944 C   0  0  0  0  0  0  0  0  0  0  0  0
    4.5379   -3.5659   -0.1901 C   0  0  0  0  0  0  0  0  0  0  0  0
    5.2337   -4.7944   -0.1898 C   0  0  0  0  0  0  0  0  0  0  0  0
    6.6116   -4.8354   -0.0330 C   0  0  0  0  0  0  0  0  0  0  0  0
    7.2984   -3.6509    0.1704 C   0  0  0  0  0  0  0  0  0  0  0  0
    6.6076   -2.4316    0.1845 C   0  0  0  0  0  0  0  0  0  0  0  0
    5.2249   -2.3420   -0.0625 C   0  0  0  0  0  0  0  0  0  0  0  0
    2.3394    2.1100    0.5060 H   0  0  0  0  0  0  0  0  0  0  0  0
    4.2203    3.5762    0.6963 H   0  0  0  0  0  0  0  0  0  0  0  0
    6.6099    3.9668    0.2050 H   0  0  0  0  0  0  0  0  0  0  0  0
    7.9922    2.1123   -0.6933 H   0  0  0  0  0  0  0  0  0  0  0  0
    7.0377   -0.1096   -1.0082 H   0  0  0  0  0  0  0  0  0  0  0  0
    1.7173   -2.3788    0.8044 H   0  0  0  0  0  0  0  0  0  0  0  0
    1.5756   -2.2506   -0.9375 H   0  0  0  0  0  0  0  0  0  0  0  0
    2.6785   -4.3352    0.4779 H   0  0  0  0  0  0  0  0  0  0  0  0
    2.7787   -4.0876   -1.2615 H   0  0  0  0  0  0  0  0  0  0  0  0
    4.6870   -5.7294   -0.2996 H   0  0  0  0  0  0  0  0  0  0  0  0
    7.1376   -5.7857   -0.0378 H   0  0  0  0  0  0  0  0  0  0  0  0
    8.3730   -3.6669    0.3333 H   0  0  0  0  0  0  0  0  0  0  0  0
    7.1983   -1.5574    0.4307 H   0  0  0  0  0  0  0  0  0  0  0  0
  1  2  2  0  0  0  0
  2  3  1  0  0  0  0
  2 11  1  0  0  0  0
  3  4  1  0  0  0  0
  3 20  1  0  0  0  0
  4  5  1  0  0  0  0
  4  9  2  0  0  0  0
  5  6  2  0  0  0  0
  5 21  1  0  0  0  0
  6  7  1  0  0  0  0
  6 22  1  0  0  0  0
  7  8  2  0  0  0  0
  7 23  1  0  0  0  0
  8  9  1  0  0  0  0
  8 24  1  0  0  0  0
  9 10  1  0  0  0  0
 10 11  2  0  0  0  0
 10 19  1  0  0  0  0
 11 12  1  0  0  0  0
 12 13  1  0  0  0  0
 12 25  1  0  0  0  0
 12 26  1  0  0  0  0
 13 14  1  0  0  0  0
 13 27  1  0  0  0  0
 13 28  1  0  0  0  0
 14 15  1  0  0  0  0
 14 19  2  0  0  0  0
 15 16  2  0  0  0  0
 15 29  1  0  0  0  0
 16 17  1  0  0  0  0
 16 30  1  0  0  0  0
 17 18  2  0  0  0  0
 17 31  1  0  0  0  0
 18 19  1  0  0  0  0
 18 32  1  0  0  0  0
M  END
$$$$
