
  --CCDC--092525    3D                              

 64 65  0  0  0  0  0  0  0  0999 V2000
    1.6041    1.2836    0.0639 H      0
    0.5656    0.9599    0.0129 C      0
    0.2713    0.8470   -1.0295 H      0
   -0.2940    2.0111    0.6410 C      0
   -1.5000    2.3023    0.1999 N      0
   -1.9393    3.2475    1.0185 N      0
   -3.1177    3.8197    0.8900 O      0
   -3.6967    2.8010    1.6624 C      0
   -4.7516    3.0094    1.8278 H      0
   -3.2271    2.7021    2.6382 H      0
   -3.6245    1.8425    1.1527 H      0
   -4.3742    4.4299    0.7530 C      0
   -4.2016    5.4584    0.4428 H      0
   -4.9881    3.9990   -0.0398 H      0
   -4.9286    4.5112    1.6895 H      0
   -2.5388    4.8385    0.1175 C      0
   -3.0090    4.9644   -0.8607 H      0
   -1.5163    4.5834   -0.1464 H      0
   -2.4385    5.7890    0.6469 H      0
   -2.8529    4.6580    2.1941 P      0
   -1.3447    5.6799    2.3130 C      0
   -0.6540    5.6853    1.4694 H      0
   -0.7837    5.4675    3.2236 H      0
   -1.6648    6.7147    2.4157 H      0
   -2.1809    3.7942    3.6535 C      0
   -3.0374    3.6129    4.3038 H      0
   -1.5833    4.4296    4.2991 H      0
   -1.6960    2.8180    3.6196 H      0
   -3.7275    6.2591    2.2872 C      0
   -3.5882    6.9685    1.4749 H      0
   -3.4279    6.7708    3.1995 H      0
   -4.8022    6.2009    2.4663 H      0
   -3.3826    2.9815   -0.4141 P      0
   -2.1909    3.2519   -1.7734 C      0
   -2.2064    2.3683   -2.4081 H      0
   -1.1421    3.4290   -1.5368 H      0
   -2.5150    4.0663   -2.4211 H      0
   -2.9685    1.2097   -0.5681 C      0
   -2.1467    0.9124   -1.2221 H      0
   -3.8295    0.7684   -1.0657 H      0
   -2.8570    0.6032    0.3327 H      0
   -5.0517    2.2462   -0.4860 C      0
   -5.2236    1.9215   -1.5098 H      0
   -5.9406    2.8708   -0.3829 H      0
   -5.2125    1.3609    0.1266 H      0
   -1.0721    3.5780    1.9659 N      0
   -0.0221    2.8133    1.7535 C      0
    1.1832    2.8390    2.6590 C      0
    1.0983    3.7123    3.3039 H      0
    2.0694    2.9344    2.0334 H      0
    1.3681    1.6165    3.5489 C      0
    0.4539    1.4966    4.1283 H      0
    2.1987    1.8279    4.2208 H      0
    1.6546    0.2937    2.8847 C      0
    2.0419   -0.3874    3.6410 H      0
    2.4129    0.4565    2.1203 H      0
    0.4388   -0.3751    2.2170 C      0
   -0.4546    0.1561    2.5418 H      0
    0.3936   -1.4067    2.5629 H      0
    0.4430   -0.3933    0.7027 C      0
    1.2825   -1.0075    0.3804 H      0
   -0.4889   -0.8506    0.3735 H      0
   -3.8561    4.3835    3.1374 H      0
   -4.1519    3.7139   -1.3346 H      0
  1  2  1
  2  3  1
  2  4  1
  4  5  2
  5  6  1
  6  7  1
  7  8  1
  8  9  1
  8 10  1
  8 11  1
  7 12  1
 12 13  1
 12 14  1
 12 15  1
  7 16  1
 16 17  1
 16 18  1
 16 19  1
  7 20  1
 20 21  1
 21 22  1
 21 23  1
 21 24  1
 20 25  1
 25 26  1
 25 27  1
 25 28  1
 20 29  1
 29 30  1
 29 31  1
 29 32  1
  7 33  1
 33 34  1
 34 35  1
 34 36  1
 34 37  1
 33 38  1
 38 39  1
 38 40  1
 38 41  1
 33 42  1
 42 43  1
 42 44  1
 42 45  1
  6 46  1
 46 47  2
  4 47  1
 47 48  1
 48 49  1
 48 50  1
 48 51  1
 51 52  1
 51 53  1
 51 54  1
 54 55  1
 54 56  1
 54 57  1
 57 58  1
 57 59  1
 57 60  1
  2 60  1
 60 61  1
 60 62  1
 20 63  1
 33 64  1
M  END
$$$$
