
 OpenBabel09252514443D

114121  0  0  0  0  0  0  0  0999 V2000
    0.9392    0.0711   -0.0352 H   0  0  0  0  0  0  0  0  0  0  0  0
    2.0092    0.0711   -0.0352 C   0  0  0  0  0  3  0  0  0  0  0  0
    2.5214   -1.3118   -0.4444 C   0  0  0  0  0  3  0  0  0  0  0  0
    2.1323   -2.0492    0.2262 H   0  0  0  0  0  0  0  0  0  0  0  0
    2.0912   -1.6040   -1.7756 C   0  0  0  0  0  3  0  0  0  0  0  0
    2.5746   -2.9986   -2.1383 C   0  0  0  0  0  0  0  0  0  0  0  0
    3.6426   -3.0317   -2.0824 H   0  0  0  0  0  0  0  0  0  0  0  0
    1.9849   -4.0079   -1.1668 C   0  0  0  0  0  0  0  0  0  0  0  0
    0.9168   -3.9749   -1.2227 H   0  0  0  0  0  0  0  0  0  0  0  0
    2.3252   -4.9897   -1.4221 H   0  0  0  0  0  0  0  0  0  0  0  0
    2.2975   -3.7697   -0.1716 H   0  0  0  0  0  0  0  0  0  0  0  0
    2.1305   -3.3370   -3.5521 C   0  0  0  0  0  0  0  0  0  0  0  0
    1.0625   -3.3040   -3.6080 H   0  0  0  0  0  0  0  0  0  0  0  0
    2.5456   -2.6265   -4.2360 H   0  0  0  0  0  0  0  0  0  0  0  0
    2.4708   -4.3188   -3.8075 H   0  0  0  0  0  0  0  0  0  0  0  0
    2.5786   -0.6900   -2.7596 C   0  0  0  0  0  3  0  0  0  0  0  0
    4.0486   -0.6934   -2.7463 N   0  0  0  0  0  0  0  0  0  0  0  0
    4.9969   -1.0476   -3.8750 C   0  0  0  0  0  0  0  0  0  0  0  0
    6.1840   -0.6600   -3.6190 C   0  0  0  0  0  0  0  0  0  0  0  0
    7.3615   -0.8726   -4.5565 C   0  0  0  0  0  3  0  0  0  0  0  0
    7.9535    0.4817   -4.9538 C   0  0  0  0  0  3  0  0  0  0  0  0
    7.1923    1.0866   -5.4006 H   0  0  0  0  0  0  0  0  0  0  0  0
    8.4625    1.1381   -3.7909 C   0  0  0  0  0  3  0  0  0  0  0  0
    8.8424    2.0945   -4.0840 H   0  0  0  0  0  0  0  0  0  0  0  0
    9.5078    0.4238   -3.1287 C   0  0  0  0  0  3  0  0  0  0  0  0
   10.3220    0.2733   -3.8064 H   0  0  0  0  0  0  0  0  0  0  0  0
    8.9786   -0.9328   -2.6575 C   0  0  0  0  0  3  0  0  0  0  0  0
   10.1042   -1.7194   -2.0058 C   0  0  0  0  0  3  0  0  0  0  0  0
   10.4815   -1.1735   -1.1665 H   0  0  0  0  0  0  0  0  0  0  0  0
    9.5768   -3.0662   -1.5386 C   0  0  0  0  0  3  0  0  0  0  0  0
    9.1995   -3.6122   -2.3780 H   0  0  0  0  0  0  0  0  0  0  0  0
   10.7024   -3.8528   -0.8870 C   0  0  0  0  0  3  0  0  0  0  0  0
   10.3311   -4.8009   -0.5581 H   0  0  0  0  0  0  0  0  0  0  0  0
    9.5760   -1.9841   -4.8383 C   0  0  0  0  0  3  0  0  0  0  0  0
    8.4421   -1.7095   -3.8640 C   0  0  0  0  0  3  0  0  0  0  0  0
    6.2891    0.0157   -2.3167 N   0  0  0  0  0  0  0  0  0  0  0  0
    7.3960    0.8477   -1.8233 C   0  0  0  0  0  3  0  0  0  0  0  0
    6.5149    2.0360   -1.4310 C   0  0  0  0  0  3  0  0  0  0  0  0
    5.9297    2.6682   -2.6833 C   0  0  0  0  0  0  0  0  0  0  0  0
    5.3404    1.9442   -3.2063 H   0  0  0  0  0  0  0  0  0  0  0  0
    5.0542    3.8480   -2.2936 C   0  0  0  0  0  0  0  0  0  0  0  0
    5.6435    4.5720   -1.7705 H   0  0  0  0  0  0  0  0  0  0  0  0
    4.6422    4.2930   -3.1751 H   0  0  0  0  0  0  0  0  0  0  0  0
    4.2606    3.5096   -1.6607 H   0  0  0  0  0  0  0  0  0  0  0  0
    7.0570    3.1490   -3.5824 C   0  0  0  0  0  0  0  0  0  0  0  0
    7.6463    3.8729   -3.0594 H   0  0  0  0  0  0  0  0  0  0  0  0
    7.6733    2.3184   -3.8568 H   0  0  0  0  0  0  0  0  0  0  0  0
    6.6451    3.5940   -4.4640 H   0  0  0  0  0  0  0  0  0  0  0  0
    5.4550    1.5839   -0.5855 C   0  0  0  0  0  3  0  0  0  0  0  0
    4.8333    2.4219   -0.3487 H   0  0  0  0  0  0  0  0  0  0  0  0
    5.8969    0.9929    0.6379 C   0  0  0  0  0  3  0  0  0  0  0  0
    6.4783    1.7033    1.1877 H   0  0  0  0  0  0  0  0  0  0  0  0
    6.7530   -0.2376    0.3293 C   0  0  0  0  0  3  0  0  0  0  0  0
    7.1197   -0.6570    1.2429 H   0  0  0  0  0  0  0  0  0  0  0  0
    7.9335    0.1800   -0.5532 C   0  0  0  0  0  3  0  0  0  0  0  0
    8.8139    1.1605    0.2042 C   0  0  0  0  0  0  0  0  0  0  0  0
    8.2414    2.0259    0.4653 H   0  0  0  0  0  0  0  0  0  0  0  0
    9.3376    0.4991    1.4686 C   0  0  0  0  0  0  0  0  0  0  0  0
    9.9101   -0.3663    1.2076 H   0  0  0  0  0  0  0  0  0  0  0  0
    9.9574    1.1893    2.0018 H   0  0  0  0  0  0  0  0  0  0  0  0
    8.5138    0.2086    2.0866 H   0  0  0  0  0  0  0  0  0  0  0  0
    9.9842    1.5732   -0.6736 C   0  0  0  0  0  0  0  0  0  0  0  0
   10.5568    0.7078   -0.9347 H   0  0  0  0  0  0  0  0  0  0  0  0
    9.6156    2.0389   -1.5637 H   0  0  0  0  0  0  0  0  0  0  0  0
   10.6040    2.2635   -0.1404 H   0  0  0  0  0  0  0  0  0  0  0  0
    4.9886   -0.3401   -1.5884 Eu  0  0  0  0  0  0  0  0  0  0  0  0
    3.3659    0.7887   -3.4128 N   0  0  0  0  0  0  0  0  0  0  0  0
    2.2054    1.2860   -3.0429 C   0  0  0  0  0  0  0  0  0  0  0  0
    0.7765    1.8983   -2.5874 S   0  0  0  0  0  0  0  0  0  0  0  0
    4.4573    0.8393   -0.7633 O   0  0  0  0  0  0  0  0  0  0  0  0
    4.7864    2.0810   -1.3685 C   0  0  0  0  0  0  0  0  0  0  0  0
    5.8500    2.1700   -1.4443 H   0  0  0  0  0  0  0  0  0  0  0  0
    4.3540    2.1270   -2.3462 H   0  0  0  0  0  0  0  0  0  0  0  0
    4.4031    2.8817   -0.7711 H   0  0  0  0  0  0  0  0  0  0  0  0
    5.2022    0.6558    0.5870 C   0  0  0  0  0  0  0  0  0  0  0  0
    4.7018    1.1348    1.4025 H   0  0  0  0  0  0  0  0  0  0  0  0
    6.1793    1.0897    0.5446 H   0  0  0  0  0  0  0  0  0  0  0  0
    5.2885   -0.8755    0.7588 C   0  0  0  0  0  0  0  0  0  0  0  0
    6.2121   -1.1578    1.2194 H   0  0  0  0  0  0  0  0  0  0  0  0
    4.4921   -1.2210    1.3843 H   0  0  0  0  0  0  0  0  0  0  0  0
    5.1646   -1.4823   -0.6271 O   0  0  0  0  0  0  0  0  0  0  0  0
    4.0391   -2.3462   -0.6835 C   0  0  0  0  0  0  0  0  0  0  0  0
    3.1569   -1.8002   -0.4218 H   0  0  0  0  0  0  0  0  0  0  0  0
    3.9370   -2.7348   -1.6752 H   0  0  0  0  0  0  0  0  0  0  0  0
    4.1752   -3.1547    0.0041 H   0  0  0  0  0  0  0  0  0  0  0  0
    7.3650   -1.4888   -1.6419 O   0  0  0  0  0  0  0  0  0  0  0  0
    8.0447   -1.1151   -2.8313 C   0  0  0  0  0  0  0  0  0  0  0  0
    8.1619   -0.0518   -2.8562 H   0  0  0  0  0  0  0  0  0  0  0  0
    9.0079   -1.5807   -2.8530 H   0  0  0  0  0  0  0  0  0  0  0  0
    7.4765   -1.4313   -3.6811 H   0  0  0  0  0  0  0  0  0  0  0  0
    8.1191   -1.0692   -0.5141 C   0  0  0  0  0  0  0  0  0  0  0  0
    8.2362   -0.0059   -0.5389 H   0  0  0  0  0  0  0  0  0  0  0  0
    7.6069   -1.3508    0.3822 H   0  0  0  0  0  0  0  0  0  0  0  0
    9.4873   -1.7305   -0.5449 C   0  0  0  0  0  0  0  0  0  0  0  0
    9.9994   -1.4490   -1.4412 H   0  0  0  0  0  0  0  0  0  0  0  0
   10.0555   -1.4144    0.3048 H   0  0  0  0  0  0  0  0  0  0  0  0
    6.9415   -1.4860   -2.9459 O   0  0  0  0  0  0  0  0  0  0  0  0
    7.8444   -2.1073   -2.0431 C   0  0  0  0  0  0  0  0  0  0  0  0
    8.2530   -1.3705   -1.3836 H   0  0  0  0  0  0  0  0  0  0  0  0
    7.3246   -2.8480   -1.4720 H   0  0  0  0  0  0  0  0  0  0  0  0
    8.6359   -2.5718   -2.5933 H   0  0  0  0  0  0  0  0  0  0  0  0
    2.0687    0.7182   -2.4441 C   0  0  0  0  0  3  0  0  0  0  0  0
    2.6345    1.7024   -3.4548 C   0  0  0  0  0  0  0  0  0  0  0  0
    3.7032    1.6912   -3.4039 H   0  0  0  0  0  0  0  0  0  0  0  0
    2.1897    1.3050   -4.8529 C   0  0  0  0  0  0  0  0  0  0  0  0
    1.1209    1.3163   -4.9038 H   0  0  0  0  0  0  0  0  0  0  0  0
    2.5880    1.9979   -5.5644 H   0  0  0  0  0  0  0  0  0  0  0  0
    2.5470    0.3211   -5.0746 H   0  0  0  0  0  0  0  0  0  0  0  0
    2.1269    3.1001   -3.1398 C   0  0  0  0  0  0  0  0  0  0  0  0
    1.0582    3.1114   -3.1908 H   0  0  0  0  0  0  0  0  0  0  0  0
    2.4401    3.3799   -2.1557 H   0  0  0  0  0  0  0  0  0  0  0  0
    2.5252    3.7930   -3.8513 H   0  0  0  0  0  0  0  0  0  0  0  0
    2.5220    1.1128   -1.0351 C   0  0  0  0  0  3  0  0  0  0  0  0
    3.5908    1.1486   -0.9991 H   0  0  0  0  0  0  0  0  0  0  0  0
  1  2  1  0  0  0  0
  2  3  1  0  0  0  0
  2113  1  0  0  0  0
  3  4  1  0  0  0  0
  3  5  1  0  0  0  0
  5  6  1  0  0  0  0
  5 16  1  0  0  0  0
  6  7  1  0  0  0  0
  6  8  1  0  0  0  0
  6 12  1  0  0  0  0
  8  9  1  0  0  0  0
  8 10  1  0  0  0  0
  8 11  1  0  0  0  0
 12 13  1  0  0  0  0
 12 14  1  0  0  0  0
 12 15  1  0  0  0  0
 16 17  1  0  0  0  0
 16102  1  0  0  0  0
 17 18  1  0  0  0  0
 17 66  1  0  0  0  0
 18 19  2  0  0  0  0
 18 34  1  0  0  0  0
 19 20  1  0  0  0  0
 19 36  1  0  0  0  0
 20 21  1  0  0  0  0
 20 35  1  0  0  0  0
 21 22  1  0  0  0  0
 21 23  1  0  0  0  0
 23 24  1  0  0  0  0
 23 25  1  0  0  0  0
 25 26  1  0  0  0  0
 25 27  1  0  0  0  0
 27 28  1  0  0  0  0
 27 35  1  0  0  0  0
 28 29  1  0  0  0  0
 28 30  1  0  0  0  0
 30 31  1  0  0  0  0
 30 32  1  0  0  0  0
 32 33  1  0  0  0  0
 32 34  1  0  0  0  0
 34 35  1  0  0  0  0
 36 37  1  0  0  0  0
 36 66  1  0  0  0  0
 37 38  1  0  0  0  0
 37 55  1  0  0  0  0
 38 39  1  0  0  0  0
 38 49  1  0  0  0  0
 39 40  1  0  0  0  0
 39 41  1  0  0  0  0
 39 45  1  0  0  0  0
 41 42  1  0  0  0  0
 41 43  1  0  0  0  0
 41 44  1  0  0  0  0
 45 46  1  0  0  0  0
 45 47  1  0  0  0  0
 45 48  1  0  0  0  0
 49 50  1  0  0  0  0
 49 51  1  0  0  0  0
 51 52  1  0  0  0  0
 51 53  1  0  0  0  0
 53 54  1  0  0  0  0
 53 55  1  0  0  0  0
 55 56  1  0  0  0  0
 56 57  1  0  0  0  0
 56 58  1  0  0  0  0
 56 62  1  0  0  0  0
 58 59  1  0  0  0  0
 58 60  1  0  0  0  0
 58 61  1  0  0  0  0
 62 63  1  0  0  0  0
 62 64  1  0  0  0  0
 62 65  1  0  0  0  0
 66 67  1  0  0  0  0
 66 70  1  0  0  0  0
 66 81  1  0  0  0  0
 66 86  1  0  0  0  0
 66 97  1  0  0  0  0
 67 68  2  0  0  0  0
 68 69  2  0  0  0  0
 70 71  1  0  0  0  0
 70 75  1  0  0  0  0
 71 72  1  0  0  0  0
 71 73  1  0  0  0  0
 71 74  1  0  0  0  0
 75 76  1  0  0  0  0
 75 77  1  0  0  0  0
 75 78  1  0  0  0  0
 78 79  1  0  0  0  0
 78 80  1  0  0  0  0
 78 81  1  0  0  0  0
 81 82  1  0  0  0  0
 82 83  1  0  0  0  0
 82 84  1  0  0  0  0
 82 85  1  0  0  0  0
 86 87  1  0  0  0  0
 86 91  1  0  0  0  0
 87 88  1  0  0  0  0
 87 89  1  0  0  0  0
 87 90  1  0  0  0  0
 91 92  1  0  0  0  0
 91 93  1  0  0  0  0
 91 94  1  0  0  0  0
 94 95  1  0  0  0  0
 94 96  1  0  0  0  0
 94 97  1  0  0  0  0
 97 98  1  0  0  0  0
 98 99  1  0  0  0  0
 98100  1  0  0  0  0
 98101  1  0  0  0  0
102103  1  0  0  0  0
102113  1  0  0  0  0
103104  1  0  0  0  0
103105  1  0  0  0  0
103109  1  0  0  0  0
105106  1  0  0  0  0
105107  1  0  0  0  0
105108  1  0  0  0  0
109110  1  0  0  0  0
109111  1  0  0  0  0
109112  1  0  0  0  0
113114  1  0  0  0  0
M  END
$$$$
