
     RDKit          3D

 32 35  0  0  0  0  0  0  0  0999 V2000
    0.4401   -3.8829    0.2723 O   0  0  0  0  0  0  0  0  0  0  0  0
    0.7419   -2.6976    0.1673 C   0  0  0  0  0  0  0  0  0  0  0  0
    2.0468   -2.3132    0.0937 N   0  0  0  0  0  0  0  0  0  0  0  0
    2.4480   -0.9982   -0.1386 C   0  0  0  0  0  0  0  0  0  0  0  0
    3.8064   -0.7390   -0.3464 C   0  0  0  0  0  0  0  0  0  0  0  0
    4.2199    0.5448   -0.6903 C   0  0  0  0  0  0  0  0  0  0  0  0
    3.2743    1.5533   -0.8467 C   0  0  0  0  0  0  0  0  0  0  0  0
    1.9182    1.2871   -0.6257 C   0  0  0  0  0  0  0  0  0  0  0  0
    1.4831    0.0164   -0.2202 C   0  0  0  0  0  0  0  0  0  0  0  0
    0.0528   -0.3070    0.0578 C   0  0  0  0  0  0  0  0  0  0  0  0
   -0.2864   -1.6171    0.1456 C   0  0  0  0  0  0  0  0  0  0  0  0
   -1.7178   -2.0906    0.2222 C   0  0  0  0  0  0  0  0  0  0  0  0
   -2.6580   -1.1218   -0.4978 C   0  0  0  0  0  0  0  0  0  0  0  0
   -2.3946    0.2821   -0.0248 C   0  0  0  0  0  0  0  0  0  0  0  0
   -3.4537    1.1879    0.1295 C   0  0  0  0  0  0  0  0  0  0  0  0
   -3.2167    2.4581    0.6469 C   0  0  0  0  0  0  0  0  0  0  0  0
   -1.9279    2.8201    1.0256 C   0  0  0  0  0  0  0  0  0  0  0  0
   -0.8677    1.9249    0.8534 C   0  0  0  0  0  0  0  0  0  0  0  0
   -1.0707    0.6614    0.2795 C   0  0  0  0  0  0  0  0  0  0  0  0
    2.7249   -3.0620    0.1117 H   0  0  0  0  0  0  0  0  0  0  0  0
    4.5441   -1.5323   -0.2663 H   0  0  0  0  0  0  0  0  0  0  0  0
    5.2728    0.7520   -0.8631 H   0  0  0  0  0  0  0  0  0  0  0  0
    3.5871    2.5495   -1.1507 H   0  0  0  0  0  0  0  0  0  0  0  0
    1.2109    2.0923   -0.8030 H   0  0  0  0  0  0  0  0  0  0  0  0
   -1.8384   -3.0756   -0.2431 H   0  0  0  0  0  0  0  0  0  0  0  0
   -2.0017   -2.1919    1.2775 H   0  0  0  0  0  0  0  0  0  0  0  0
   -3.6950   -1.4141   -0.2957 H   0  0  0  0  0  0  0  0  0  0  0  0
   -2.5047   -1.1657   -1.5833 H   0  0  0  0  0  0  0  0  0  0  0  0
   -4.4689    0.8981   -0.1310 H   0  0  0  0  0  0  0  0  0  0  0  0
   -4.0400    3.1552    0.7786 H   0  0  0  0  0  0  0  0  0  0  0  0
   -1.7452    3.7980    1.4638 H   0  0  0  0  0  0  0  0  0  0  0  0
    0.1163    2.2279    1.2012 H   0  0  0  0  0  0  0  0  0  0  0  0
  1  2  2  0
  2  3  1  0
  3  4  1  0
  4  5  2  0
  5  6  1  0
  6  7  2  0
  7  8  1  0
  8  9  2  0
  9 10  1  0
 10 11  2  0
 11 12  1  0
 12 13  1  0
 13 14  1  0
 14 15  2  0
 15 16  1  0
 16 17  2  0
 17 18  1  0
 18 19  2  0
 11  2  1  0
 19 14  1  0
  9  4  1  0
 19 10  1  0
  3 20  1  0
  5 21  1  0
  6 22  1  0
  7 23  1  0
  8 24  1  0
 12 25  1  0
 12 26  1  0
 13 27  1  0
 13 28  1  0
 15 29  1  0
 16 30  1  0
 17 31  1  0
 18 32  1  0
M  END
