
  --CCDC--092525    3D                              

 24 29  0  0  0  0  0  0  0  0999 V2000
    1.7158   -1.2412    0.1462 H      0
    1.4234   -0.3611   -0.4222 C      0
    2.1077    0.4441   -0.1645 H      0
    1.5447   -0.5832   -1.4799 H      0
   -0.0257    0.0394   -0.1054 C      0
   -1.2096    0.4262   -0.9510 C      0
   -0.9076    0.4577   -2.0547 H      0
   -2.4664    0.1137   -0.1562 C      0
   -3.3416   -0.0100   -0.8809 H      0
   -2.0121   -0.6194    1.1510 C      0
   -2.4976   -1.6380    1.2762 H      0
   -0.4724   -0.6647    1.1256 C      0
   -0.0227   -1.7058    1.1873 H      0
   -1.3308   -1.7183   -0.5292 Mn     0
   -0.9638   -3.7816    0.3965 C      0
   -0.7821   -4.8078    0.8602 O      0
   -3.1553   -3.0739   -0.8108 C      0
   -4.0634   -3.7487   -0.9510 O      0
   -1.3301   -2.5620   -2.2537 H      0
    0.0532   -3.3130   -2.2322 Si     0
    1.9152   -3.4050   -1.3409 Cl     0
   -0.1321   -4.5233   -3.8946 Cl     0
    1.1453   -2.1535   -3.5476 Cl     0
   -0.0938   -4.6459   -1.5470 H      0
  1  2  1
  2  3  1
  2  4  1
  2  5  1
  5  6  4
  6  7  1
  6  8  4
  8  9  1
  8 10  4
 10 11  1
 10 12  4
  5 12  4
 12 13  1
 12 14  1
  8 14  1
 10 14  1
  6 14  1
  5 14  1
 14 15  1
 15 16  3
 14 17  1
 17 18  3
 14 19  1
 19 20  1
 14 20  1
 20 21  1
 20 22  1
 20 23  1
 20 24  1
M  END
$$$$
