
  --CCDC--092525    3D                              

 73 75  0  0  0  0  0  0  0  0999 V2000
    1.1490   -0.5746    0.1940 H      0
    1.3921    0.4827    0.2133 C      0
    2.1080    1.0481   -0.8171 C      0
    2.4287    0.4350   -1.6528 H      0
    2.4229    2.3963   -0.7897 C      0
    2.9964    2.8229   -1.6052 H      0
    2.0276    3.2093    0.2697 C      0
    2.4013    4.6788    0.2410 C      0
    2.8512    5.5142   -0.4964 C      0
    3.3252    5.7097   -1.9055 C      0
    3.1825    4.6866   -2.8389 C      0
    2.7177    3.7521   -2.5441 H      0
    3.6219    4.8457   -4.1426 C      0
    3.5058    4.0351   -4.8544 H      0
    4.2045    6.0285   -4.5398 C      0
    4.5498    6.1503   -5.5612 H      0
    4.3444    7.0566   -3.6346 C      0
    4.7986    7.9918   -3.9450 H      0
    3.9065    6.9024   -2.3298 C      0
    4.0152    7.7241   -1.6304 H      0
    2.7253    6.2827    1.2684 Co     3
    3.5007    7.9995    1.6792 N      0
    3.9450    9.0369    1.8662 C      0
    4.5333   10.3524    2.0767 C      0
    5.1671   10.6303    1.2371 H      0
    5.1416   10.3631    2.9787 H      0
    3.7585   11.1091    2.1814 H      0
    1.6550    5.4534    3.1680 P      0
    0.0034    5.3998    2.4353 C      0
   -0.5674    4.5896    2.8842 H      0
    0.0592    5.2114    1.3654 H      0
   -0.5696    6.2979    2.5941 H      0
    1.5529    6.5656    4.5950 C      0
    0.5449    6.9399    4.7455 H      0
    2.2195    7.4170    4.4854 H      0
    1.8329    6.0345    5.5024 H      0
    2.8398    4.1538    3.5921 C      0
    3.2041    3.6406    2.7082 H      0
    2.3535    3.4135    4.2239 H      0
    3.6979    4.5044    4.1432 H      0
    1.1529    7.9535    0.8794 P      0
    1.9576    8.4824   -0.6527 C      0
    1.8767    7.7117   -1.4126 H      0
    3.0075    8.7272   -0.5127 H      0
    1.4614    9.3676   -1.0450 H      0
    0.8314    8.6499    2.5268 C      0
    0.1154    8.0848    3.1046 H      0
    0.4173    9.6502    2.4187 H      0
    1.7301    8.7396    3.1282 H      0
   -0.4225    7.4970    0.1011 C      0
   -0.8993    8.3833   -0.3122 H      0
   -0.2443    6.8095   -0.7232 H      0
   -1.1399    7.0294    0.7646 H      0
    4.8669    5.9308    2.0674 P      0
    5.5069    4.2321    2.0851 C      0
    5.0520    3.6514    1.2854 H      0
    5.3506    3.6962    3.0133 H      0
    6.5802    4.2450    1.9073 H      0
    4.8099    6.5833    3.7639 C      0
    4.9770    7.6540    3.8044 H      0
    5.5979    6.1214    4.3550 H      0
    3.8764    6.3966    4.2780 H      0
    5.6055    6.4216    0.4900 C      0
    5.4210    5.6746   -0.2763 H      0
    6.6846    6.5099    0.5972 H      0
    5.2298    7.3807    0.1431 H      0
    1.2917    2.6190    1.2959 C      0
    0.9366    3.2132    2.1257 H      0
    0.9850    1.2685    1.2675 C      0
    0.4167    0.8279    2.0799 H      0
    1.0229    4.2122    3.2990 H      0
    1.5261    9.3029    0.8840 H      0
    5.7998    6.9670    2.1942 H      0
  1  2  1
  2  3  4
  3  4  1
  3  5  4
  5  6  1
  5  7  4
  7  8  1
  8  9  3
  9 10  1
 10 11  4
 11 12  1
 11 13  4
 13 14  1
 13 15  4
 15 16  1
 15 17  4
 17 18  1
 17 19  4
 10 19  4
 19 20  1
  9 21  1
  8 21  1
 21 22  1
 22 23  3
 23 24  1
 24 25  1
 24 26  1
 24 27  1
 21 28  1
 28 29  1
 29 30  1
 29 31  1
 29 32  1
 28 33  1
 33 34  1
 33 35  1
 33 36  1
 28 37  1
 37 38  1
 37 39  1
 37 40  1
 21 41  1
 41 42  1
 42 43  1
 42 44  1
 42 45  1
 41 46  1
 46 47  1
 46 48  1
 46 49  1
 41 50  1
 50 51  1
 50 52  1
 50 53  1
 21 54  1
 54 55  1
 55 56  1
 55 57  1
 55 58  1
 54 59  1
 59 60  1
 59 61  1
 59 62  1
 54 63  1
 63 64  1
 63 65  1
 63 66  1
  7 67  4
 67 68  1
 67 69  4
  2 69  4
 69 70  1
 28 71  1
 41 72  1
 54 73  1
M  CHG  1  21   1
M  END
$$$$
