
 OpenBabel09252519443D

 35 38  0  0  1  0  0  0  0  0999 V2000
    2.9561    0.1508    0.9045 H   0  0  0  0  0  0  0  0  0  0  0  0
    2.9301   -0.0860   -0.1536 C   0  0  0  0  0  3  0  0  0  0  0  0
    2.3516   -1.3518   -0.5888 C   0  0  0  0  0  3  0  0  0  0  0  0
    2.2299   -2.1287    0.1536 H   0  0  0  0  0  0  0  0  0  0  0  0
    1.7469   -1.4457   -1.9307 C   0  0  0  0  0  3  0  0  0  0  0  0
    0.3806   -1.7540   -1.9837 N   0  0  0  0  0  0  0  0  0  0  0  0
   -0.5169   -0.6664   -2.2922 C   0  0  0  0  0  0  0  0  0  0  0  0
   -0.4237    0.1721   -3.1734 O   0  0  0  0  0  0  0  0  0  0  0  0
   -1.5075   -0.5700   -1.1724 C   0  0  2  0  0  0  0  0  0  0  0  0
   -0.6119   -0.7305   -0.5359 H   0  0  0  0  0  0  0  0  0  0  0  0
   -1.9003    0.2626    0.0296 C   0  0  0  0  0  0  0  0  0  0  0  0
   -2.6321    1.0405   -0.2146 H   0  0  0  0  0  0  0  0  0  0  0  0
   -1.0548    0.7546    0.5336 H   0  0  0  0  0  0  0  0  0  0  0  0
   -2.4902   -0.9336    0.8512 C   0  0  2  0  0  0  0  0  0  0  0  0
   -3.0860   -0.3449    2.5620 Br  0  0  0  0  0  0  0  0  0  0  0  0
   -1.4751   -2.0332    0.9315 O   0  0  0  0  0  0  0  0  0  0  0  0
   -1.5064   -2.7536   -0.3557 C   0  0  2  0  0  0  0  0  0  0  0  0
   -2.0821   -4.4112   -0.0537 Cl  0  0  0  0  0  0  0  0  0  0  0  0
   -0.1395   -2.9116   -1.1555 C   0  0  0  0  0  0  0  0  0  0  0  0
   -0.2901   -3.6842   -1.9239 H   0  0  0  0  0  0  0  0  0  0  0  0
    0.6334   -3.2929   -0.4843 H   0  0  0  0  0  0  0  0  0  0  0  0
   -2.4314   -1.8366   -1.1281 C   0  0  1  0  0  0  0  0  0  0  0  0
   -2.7628   -2.1995   -2.1040 H   0  0  0  0  0  0  0  0  0  0  0  0
   -3.5261   -1.3903   -0.1617 C   0  0  1  0  0  0  0  0  0  0  0  0
   -4.0692   -0.5330   -0.5840 H   0  0  0  0  0  0  0  0  0  0  0  0
   -5.0334   -2.7132    0.3957 I   0  0  0  0  0  0  0  0  0  0  0  0
    2.3000   -0.5481   -2.9494 C   0  0  0  0  0  3  0  0  0  0  0  0
    2.0715   -0.7356   -3.9934 H   0  0  0  0  0  0  0  0  0  0  0  0
    2.9253    0.7143   -2.5500 C   0  0  0  0  0  3  0  0  0  0  0  0
    3.1596    1.8016   -3.5468 C   0  0  0  0  0  0  0  0  0  0  0  0
    4.4818    2.0987   -3.6512 F   0  0  0  0  0  0  0  0  0  0  0  0
    2.7354    1.4858   -4.7972 F   0  0  0  0  0  0  0  0  0  0  0  0
    2.5320    2.9548   -3.1962 F   0  0  0  0  0  0  0  0  0  0  0  0
    3.2029    0.9554   -1.1316 C   0  0  0  0  0  3  0  0  0  0  0  0
    3.3979    1.9666   -0.7881 H   0  0  0  0  0  0  0  0  0  0  0  0
  1  2  1  0  0  0  0
  2  3  1  0  0  0  0
  2 34  1  0  0  0  0
  3  4  1  0  0  0  0
  3  5  1  0  0  0  0
  5 27  1  0  0  0  0
  5  6  1  0  0  0  0
  6  7  1  0  0  0  0
  6 19  1  0  0  0  0
  7  9  1  0  0  0  0
  7  8  2  0  0  0  0
  9 11  1  0  0  0  0
  9 22  1  0  0  0  0
  9 10  1  6  0  0  0
 11 14  1  0  0  0  0
 11 12  1  0  0  0  0
 11 13  1  0  0  0  0
 14 16  1  0  0  0  0
 14 24  1  0  0  0  0
 14 15  1  1  0  0  0
 16 17  1  0  0  0  0
 17 19  1  0  0  0  0
 17 22  1  0  0  0  0
 17 18  1  1  0  0  0
 19 20  1  0  0  0  0
 19 21  1  0  0  0  0
 22 24  1  0  0  0  0
 22 23  1  6  0  0  0
 24 26  1  0  0  0  0
 24 25  1  6  0  0  0
 27 28  1  0  0  0  0
 27 29  1  0  0  0  0
 29 30  1  0  0  0  0
 29 34  1  0  0  0  0
 30 31  1  0  0  0  0
 30 32  1  0  0  0  0
 30 33  1  0  0  0  0
 34 35  1  0  0  0  0
M  END
$$$$
