
  --CCDC--092525    3D                              

114121  0  0  0  0  0  0  0  0999 V2000
    0.7014   -0.1653    0.3102 H      0
    1.1167    0.8359    0.2589 C      0
    1.3302    1.4382   -0.9664 C      0
    1.0604    0.9039   -1.8716 H      0
    1.8657    2.7207   -1.0645 C      0
    1.9469    3.3333   -2.4578 C      0
    2.1993    4.4013   -2.3687 H      0
    2.9543    2.6524   -3.3874 C      0
    2.8083    2.9885   -4.4122 H      0
    2.8317    1.5713   -3.3712 H      0
    3.9788    2.8816   -3.1173 H      0
    0.5868    3.2052   -3.1428 C      0
    0.5622    2.3237   -3.7804 H      0
    0.3861    4.0751   -3.7647 H      0
   -0.2145    3.1141   -2.4143 H      0
    2.2054    3.3895    0.1340 C      0
    2.8226    4.6729    0.0491 N      0
    4.1333    4.8212   -0.5009 C      0
    4.6437    6.0940   -0.7270 C      0
    5.9774    5.9835   -1.3339 C      0
    6.9633    6.8160   -1.8160 C      0
    6.8230    7.8920   -1.7934 H      0
    8.1378    6.2817   -2.3335 C      0
    8.8997    6.9592   -2.7043 H      0
    8.3664    4.9348   -2.3904 C      0
    9.3010    4.5594   -2.7944 H      0
    7.3841    4.0333   -1.9194 C      0
    7.4765    2.6233   -1.9071 C      0
    8.3626    2.1353   -2.2981 H      0
    6.4519    1.8763   -1.3959 C      0
    6.5499    0.7960   -1.3825 H      0
    5.2901    2.4510   -0.8922 C      0
    4.5054    1.8177   -0.4911 H      0
    5.1318    3.8204   -0.9064 C      0
    6.1994    4.5944   -1.4044 C      0
    3.8690    7.2451   -0.3866 N      0
    4.4218    8.5583   -0.5117 C      0
    4.2729    9.3567   -1.6757 C      0
    3.7432    8.9491   -3.0504 C      0
    3.1520    8.0294   -2.9346 H      0
    4.7912    8.7176   -4.1372 C      0
    5.5041    7.9525   -3.8409 H      0
    5.3408    9.6331   -4.3437 H      0
    4.3168    8.3941   -5.0613 H      0
    2.7975   10.0260   -3.5849 C      0
    1.9927    9.5752   -4.1620 H      0
    3.3310   10.7167   -4.2344 H      0
    2.3455   10.5993   -2.7787 H      0
    4.6987   10.6827   -1.5910 C      0
    4.5250   11.3465   -2.4305 H      0
    5.3499   11.1837   -0.4820 C      0
    5.6653   12.2219   -0.4541 H      0
    5.6234   10.3475    0.5790 C      0
    6.1922   10.7380    1.4162 H      0
    5.1893    9.0227    0.5833 C      0
    5.5818    8.1501    1.7695 C      0
    4.9050    7.2851    1.8128 H      0
    5.5173    8.9149    3.0927 C      0
    4.8280    9.7510    3.0384 H      0
    6.4976    9.3133    3.3458 H      0
    5.2003    8.2628    3.9043 H      0
    7.0163    7.6393    1.6424 C      0
    7.1315    6.9841    0.7853 H      0
    7.3032    7.0796    2.5301 H      0
    7.7098    8.4698    1.5288 H      0
    1.5023    6.8657    0.7766 Eu     0
    0.0958    6.0883    2.8979 N      0
   -0.6380    5.7475    3.9600 C      0
   -1.5779    5.3109    5.3202 S      0
   -0.0267    7.8141   -1.1780 O      0
    0.5198    8.3537   -2.3464 C      0
    1.2497    7.6740   -2.7784 H      0
    0.9995    9.3014   -2.1235 H      0
   -0.2553    8.5301   -3.0897 H      0
   -1.2291    7.1121   -1.3997 C      0
   -1.9459    7.3033   -0.5918 H      0
   -1.6989    7.4406   -2.3355 H      0
   -0.8927    5.6524   -1.4523 C      0
   -1.7781    5.0565   -1.7064 H      0
   -0.1374    5.4583   -2.2230 H      0
   -0.4171    5.2959   -0.1751 O      0
   -1.4630    4.9291    0.6851 C      0
   -2.1621    4.2669    0.1791 H      0
   -2.0086    5.8081    1.0200 H      0
   -1.0827    4.4099    1.5624 H      0
    1.3244    9.4433    1.3726 O      0
    1.2699   10.3861    0.3331 C      0
    0.4867   10.1326   -0.3787 H      0
    2.2159   10.4281   -0.2044 H      0
    1.0625   11.3796    0.7267 H      0
    2.2094    9.8434    2.3999 C      0
    3.2120   10.0025    1.9848 H      0
    1.8853   10.8055    2.8156 H      0
    2.2549    8.7969    3.4849 C      0
    2.8603    9.1488    4.3292 H      0
    1.2477    8.6014    3.8727 H      0
    2.8202    7.6208    2.9447 O      0
    3.2034    6.6724    3.9067 C      0
    3.8353    5.9045    3.4650 H      0
    2.3313    6.1871    4.3402 H      0
    3.7619    7.1458    4.7117 H      0
    1.9586    2.8052    1.3898 C      0
    2.2375    3.5189    2.7002 C      0
    2.3254    4.5981    2.5011 H      0
    3.5363    3.0194    3.3286 C      0
    4.3764    3.1676    2.6537 H      0
    3.7457    3.5509    4.2544 H      0
    3.4644    1.9576    3.5560 H      0
    1.0958    3.2897    3.6889 C      0
    1.1339    2.2813    4.0945 H      0
    0.1322    3.4171    3.2006 H      0
    1.1533    3.9923    4.5183 H      0
    1.4271    1.5157    1.4214 C      0
    1.2552    1.0249    2.3735 H      0
  1  2  1
  2  3  4
  3  4  1
  3  5  4
  5  6  1
  6  7  1
  6  8  1
  8  9  1
  8 10  1
  8 11  1
  6 12  1
 12 13  1
 12 14  1
 12 15  1
  5 16  4
 16 17  1
 17 18  1
 18 19  2
 19 20  1
 20 21  4
 21 22  1
 21 23  4
 23 24  1
 23 25  4
 25 26  1
 25 27  4
 27 28  4
 28 29  1
 28 30  4
 30 31  1
 30 32  4
 32 33  1
 32 34  4
 18 34  1
 34 35  4
 20 35  4
 27 35  4
 19 36  1
 36 37  1
 37 38  4
 38 39  1
 39 40  1
 39 41  1
 41 42  1
 41 43  1
 41 44  1
 39 45  1
 45 46  1
 45 47  1
 45 48  1
 38 49  4
 49 50  1
 49 51  4
 51 52  1
 51 53  4
 53 54  1
 53 55  4
 37 55  4
 55 56  1
 56 57  1
 56 58  1
 58 59  1
 58 60  1
 58 61  1
 56 62  1
 62 63  1
 62 64  1
 62 65  1
 36 66  1
 17 66  1
 66 67  1
 67 68  4
 68 69  4
 66 70  1
 70 71  1
 71 72  1
 71 73  1
 71 74  1
 70 75  1
 75 76  1
 75 77  1
 75 78  1
 78 79  1
 78 80  1
 78 81  1
 66 81  1
 81 82  1
 82 83  1
 82 84  1
 82 85  1
 66 86  1
 86 87  1
 87 88  1
 87 89  1
 87 90  1
 86 91  1
 91 92  1
 91 93  1
 91 94  1
 94 95  1
 94 96  1
 94 97  1
 66 97  1
 97 98  1
 98 99  1
 98100  1
 98101  1
 16102  4
102103  1
103104  1
103105  1
105106  1
105107  1
105108  1
103109  1
109110  1
109111  1
109112  1
102113  4
  2113  4
113114  1
M  END
$$$$
