
 OpenBabel09252519503D

114121  0  0  0  0  0  0  0  0999 V2000
    1.0222    0.0931    0.0289 H   0  0  0  0  0  0  0  0  0  0  0  0
    2.0922    0.0931    0.0289 C   0  0  0  0  0  3  0  0  0  0  0  0
    2.6045   -1.2898   -0.3802 C   0  0  0  0  0  3  0  0  0  0  0  0
    2.2153   -2.0272    0.2904 H   0  0  0  0  0  0  0  0  0  0  0  0
    2.1742   -1.5820   -1.7115 C   0  0  0  0  0  3  0  0  0  0  0  0
    2.6576   -2.9766   -2.0742 C   0  0  0  0  0  0  0  0  0  0  0  0
    3.7257   -3.0097   -2.0183 H   0  0  0  0  0  0  0  0  0  0  0  0
    2.0679   -3.9859   -1.1026 C   0  0  0  0  0  0  0  0  0  0  0  0
    0.9999   -3.9529   -1.1585 H   0  0  0  0  0  0  0  0  0  0  0  0
    2.4082   -4.9677   -1.3580 H   0  0  0  0  0  0  0  0  0  0  0  0
    2.3805   -3.7477   -0.1074 H   0  0  0  0  0  0  0  0  0  0  0  0
    2.2136   -3.3150   -3.4880 C   0  0  0  0  0  0  0  0  0  0  0  0
    1.1455   -3.2820   -3.5439 H   0  0  0  0  0  0  0  0  0  0  0  0
    2.6287   -2.6045   -4.1719 H   0  0  0  0  0  0  0  0  0  0  0  0
    2.5539   -4.2968   -3.7433 H   0  0  0  0  0  0  0  0  0  0  0  0
    2.6617   -0.6680   -2.6955 C   0  0  0  0  0  3  0  0  0  0  0  0
    4.1316   -0.6714   -2.6822 N   0  0  0  0  0  0  0  0  0  0  0  0
    5.0800   -1.0256   -3.8108 C   0  0  0  0  0  0  0  0  0  0  0  0
    6.2671   -0.6380   -3.5549 C   0  0  0  0  0  0  0  0  0  0  0  0
    7.4445   -0.8506   -4.4923 C   0  0  0  0  0  3  0  0  0  0  0  0
    8.0365    0.5037   -4.8897 C   0  0  0  0  0  3  0  0  0  0  0  0
    7.2753    1.1086   -5.3364 H   0  0  0  0  0  0  0  0  0  0  0  0
    8.5456    1.1601   -3.7267 C   0  0  0  0  0  3  0  0  0  0  0  0
    8.9255    2.1165   -4.0198 H   0  0  0  0  0  0  0  0  0  0  0  0
    9.5908    0.4458   -3.0646 C   0  0  0  0  0  3  0  0  0  0  0  0
   10.4050    0.2953   -3.7423 H   0  0  0  0  0  0  0  0  0  0  0  0
    9.0617   -0.9108   -2.5934 C   0  0  0  0  0  3  0  0  0  0  0  0
   10.1873   -1.6974   -1.9417 C   0  0  0  0  0  3  0  0  0  0  0  0
   10.5645   -1.1515   -1.1023 H   0  0  0  0  0  0  0  0  0  0  0  0
    9.6598   -3.0442   -1.4745 C   0  0  0  0  0  3  0  0  0  0  0  0
    9.2826   -3.5902   -2.3138 H   0  0  0  0  0  0  0  0  0  0  0  0
   10.7854   -3.8308   -0.8228 C   0  0  0  0  0  3  0  0  0  0  0  0
   10.4141   -4.7789   -0.4939 H   0  0  0  0  0  0  0  0  0  0  0  0
    9.6591   -1.9621   -4.7741 C   0  0  0  0  0  3  0  0  0  0  0  0
    8.5251   -1.6875   -3.7999 C   0  0  0  0  0  3  0  0  0  0  0  0
    6.3721    0.0377   -2.2525 N   0  0  0  0  0  0  0  0  0  0  0  0
    7.4791    0.8697   -1.7591 C   0  0  0  0  0  3  0  0  0  0  0  0
    6.5980    2.0580   -1.3669 C   0  0  0  0  0  3  0  0  0  0  0  0
    6.0127    2.6902   -2.6192 C   0  0  0  0  0  0  0  0  0  0  0  0
    5.4235    1.9662   -3.1422 H   0  0  0  0  0  0  0  0  0  0  0  0
    5.1372    3.8700   -2.2294 C   0  0  0  0  0  0  0  0  0  0  0  0
    5.7265    4.5940   -1.7064 H   0  0  0  0  0  0  0  0  0  0  0  0
    4.7253    4.3150   -3.1110 H   0  0  0  0  0  0  0  0  0  0  0  0
    4.3437    3.5316   -1.5965 H   0  0  0  0  0  0  0  0  0  0  0  0
    7.1401    3.1710   -3.5183 C   0  0  0  0  0  0  0  0  0  0  0  0
    7.7293    3.8949   -2.9952 H   0  0  0  0  0  0  0  0  0  0  0  0
    7.7564    2.3404   -3.7926 H   0  0  0  0  0  0  0  0  0  0  0  0
    6.7281    3.6160   -4.3998 H   0  0  0  0  0  0  0  0  0  0  0  0
    5.5381    1.6059   -0.5214 C   0  0  0  0  0  3  0  0  0  0  0  0
    4.9163    2.4439   -0.2846 H   0  0  0  0  0  0  0  0  0  0  0  0
    5.9799    1.0149    0.7020 C   0  0  0  0  0  3  0  0  0  0  0  0
    6.5613    1.7253    1.2518 H   0  0  0  0  0  0  0  0  0  0  0  0
    6.8361   -0.2156    0.3935 C   0  0  0  0  0  3  0  0  0  0  0  0
    7.2028   -0.6350    1.3070 H   0  0  0  0  0  0  0  0  0  0  0  0
    8.0165    0.2020   -0.4891 C   0  0  0  0  0  3  0  0  0  0  0  0
    8.8970    1.1825    0.2684 C   0  0  0  0  0  0  0  0  0  0  0  0
    8.3244    2.0479    0.5295 H   0  0  0  0  0  0  0  0  0  0  0  0
    9.4206    0.5211    1.5328 C   0  0  0  0  0  0  0  0  0  0  0  0
    9.9932   -0.3443    1.2717 H   0  0  0  0  0  0  0  0  0  0  0  0
   10.0404    1.2113    2.0660 H   0  0  0  0  0  0  0  0  0  0  0  0
    8.5968    0.2306    2.1507 H   0  0  0  0  0  0  0  0  0  0  0  0
   10.0672    1.5952   -0.6095 C   0  0  0  0  0  0  0  0  0  0  0  0
   10.6398    0.7298   -0.8705 H   0  0  0  0  0  0  0  0  0  0  0  0
    9.6986    2.0609   -1.4995 H   0  0  0  0  0  0  0  0  0  0  0  0
   10.6871    2.2855   -0.0763 H   0  0  0  0  0  0  0  0  0  0  0  0
    5.0717   -0.3181   -1.5242 Eu  0  0  0  0  0  0  0  0  0  0  0  0
    4.3871   -2.6644   -0.4006 N   0  0  0  0  0  0  0  0  0  0  0  0
    5.2344   -3.2870    0.3903 C   0  0  0  0  0  0  0  0  0  0  0  0
    6.2776   -4.0536    1.3641 S   0  0  0  0  0  0  0  0  0  0  0  0
    4.5403    0.8613   -0.6992 O   0  0  0  0  0  0  0  0  0  0  0  0
    4.8694    2.1030   -1.3044 C   0  0  0  0  0  0  0  0  0  0  0  0
    5.9330    2.1920   -1.3802 H   0  0  0  0  0  0  0  0  0  0  0  0
    4.4371    2.1490   -2.2821 H   0  0  0  0  0  0  0  0  0  0  0  0
    4.4862    2.9037   -0.7069 H   0  0  0  0  0  0  0  0  0  0  0  0
    5.2852    0.6778    0.6511 C   0  0  0  0  0  0  0  0  0  0  0  0
    4.7848    1.1568    1.4666 H   0  0  0  0  0  0  0  0  0  0  0  0
    6.2624    1.1117    0.6087 H   0  0  0  0  0  0  0  0  0  0  0  0
    5.3715   -0.8535    0.8229 C   0  0  0  0  0  0  0  0  0  0  0  0
    6.2951   -1.1358    1.2835 H   0  0  0  0  0  0  0  0  0  0  0  0
    4.5751   -1.1990    1.4484 H   0  0  0  0  0  0  0  0  0  0  0  0
    5.2477   -1.4603   -0.5630 O   0  0  0  0  0  0  0  0  0  0  0  0
    4.1221   -2.3242   -0.6193 C   0  0  0  0  0  0  0  0  0  0  0  0
    3.2399   -1.7782   -0.3576 H   0  0  0  0  0  0  0  0  0  0  0  0
    4.0200   -2.7128   -1.6110 H   0  0  0  0  0  0  0  0  0  0  0  0
    4.2583   -3.1327    0.0683 H   0  0  0  0  0  0  0  0  0  0  0  0
    2.9371   -1.8704   -1.5861 O   0  0  0  0  0  0  0  0  0  0  0  0
    3.1453   -2.9247   -2.5142 C   0  0  0  0  0  0  0  0  0  0  0  0
    3.9963   -3.5003   -2.2152 H   0  0  0  0  0  0  0  0  0  0  0  0
    2.2802   -3.5539   -2.5393 H   0  0  0  0  0  0  0  0  0  0  0  0
    3.3163   -2.5145   -3.4876 H   0  0  0  0  0  0  0  0  0  0  0  0
    2.7102   -2.4148   -0.2944 C   0  0  0  0  0  0  0  0  0  0  0  0
    3.5612   -2.9904    0.0046 H   0  0  0  0  0  0  0  0  0  0  0  0
    2.5533   -1.6203    0.4050 H   0  0  0  0  0  0  0  0  0  0  0  0
    1.4812   -3.3085   -0.3300 C   0  0  0  0  0  0  0  0  0  0  0  0
    1.6381   -4.1030   -1.0294 H   0  0  0  0  0  0  0  0  0  0  0  0
    1.3102   -3.7188    0.6433 H   0  0  0  0  0  0  0  0  0  0  0  0
    7.0002    1.4062   -0.9979 O   0  0  0  0  0  0  0  0  0  0  0  0
    6.9180    2.4986   -1.9013 C   0  0  0  0  0  0  0  0  0  0  0  0
    7.0234    2.1407   -2.9042 H   0  0  0  0  0  0  0  0  0  0  0  0
    5.9690    2.9807   -1.7926 H   0  0  0  0  0  0  0  0  0  0  0  0
    7.6997    3.1975   -1.6880 H   0  0  0  0  0  0  0  0  0  0  0  0
    2.1517    0.7402   -2.3800 C   0  0  0  0  0  3  0  0  0  0  0  0
    2.7175    1.7244   -3.3907 C   0  0  0  0  0  0  0  0  0  0  0  0
    3.7863    1.7132   -3.3398 H   0  0  0  0  0  0  0  0  0  0  0  0
    2.2727    1.3270   -4.7887 C   0  0  0  0  0  0  0  0  0  0  0  0
    1.2040    1.3383   -4.8397 H   0  0  0  0  0  0  0  0  0  0  0  0
    2.6710    2.0199   -5.5002 H   0  0  0  0  0  0  0  0  0  0  0  0
    2.6300    0.3431   -5.0105 H   0  0  0  0  0  0  0  0  0  0  0  0
    2.2100    3.1221   -3.0757 C   0  0  0  0  0  0  0  0  0  0  0  0
    1.1412    3.1334   -3.1266 H   0  0  0  0  0  0  0  0  0  0  0  0
    2.5231    3.4019   -2.0915 H   0  0  0  0  0  0  0  0  0  0  0  0
    2.6083    3.8150   -3.7872 H   0  0  0  0  0  0  0  0  0  0  0  0
    2.6051    1.1348   -0.9709 C   0  0  0  0  0  3  0  0  0  0  0  0
    3.6739    1.1706   -0.9350 H   0  0  0  0  0  0  0  0  0  0  0  0
  1  2  1  0  0  0  0
  2  3  1  0  0  0  0
  2113  1  0  0  0  0
  3  4  1  0  0  0  0
  3  5  1  0  0  0  0
  5  6  1  0  0  0  0
  5 16  1  0  0  0  0
  6  7  1  0  0  0  0
  6  8  1  0  0  0  0
  6 12  1  0  0  0  0
  8  9  1  0  0  0  0
  8 10  1  0  0  0  0
  8 11  1  0  0  0  0
 12 13  1  0  0  0  0
 12 14  1  0  0  0  0
 12 15  1  0  0  0  0
 16 17  1  0  0  0  0
 16102  1  0  0  0  0
 17 18  1  0  0  0  0
 17 66  1  0  0  0  0
 18 19  2  0  0  0  0
 18 34  1  0  0  0  0
 19 20  1  0  0  0  0
 19 36  1  0  0  0  0
 20 21  1  0  0  0  0
 20 35  1  0  0  0  0
 21 22  1  0  0  0  0
 21 23  1  0  0  0  0
 23 24  1  0  0  0  0
 23 25  1  0  0  0  0
 25 26  1  0  0  0  0
 25 27  1  0  0  0  0
 27 28  1  0  0  0  0
 27 35  1  0  0  0  0
 28 29  1  0  0  0  0
 28 30  1  0  0  0  0
 30 31  1  0  0  0  0
 30 32  1  0  0  0  0
 32 33  1  0  0  0  0
 32 34  1  0  0  0  0
 34 35  1  0  0  0  0
 36 37  1  0  0  0  0
 36 66  1  0  0  0  0
 37 38  1  0  0  0  0
 37 55  1  0  0  0  0
 38 39  1  0  0  0  0
 38 49  1  0  0  0  0
 39 40  1  0  0  0  0
 39 41  1  0  0  0  0
 39 45  1  0  0  0  0
 41 42  1  0  0  0  0
 41 43  1  0  0  0  0
 41 44  1  0  0  0  0
 45 46  1  0  0  0  0
 45 47  1  0  0  0  0
 45 48  1  0  0  0  0
 49 50  1  0  0  0  0
 49 51  1  0  0  0  0
 51 52  1  0  0  0  0
 51 53  1  0  0  0  0
 53 54  1  0  0  0  0
 53 55  1  0  0  0  0
 55 56  1  0  0  0  0
 56 57  1  0  0  0  0
 56 58  1  0  0  0  0
 56 62  1  0  0  0  0
 58 59  1  0  0  0  0
 58 60  1  0  0  0  0
 58 61  1  0  0  0  0
 62 63  1  0  0  0  0
 62 64  1  0  0  0  0
 62 65  1  0  0  0  0
 66 67  1  0  0  0  0
 66 70  1  0  0  0  0
 66 81  1  0  0  0  0
 66 86  1  0  0  0  0
 66 97  1  0  0  0  0
 67 68  2  0  0  0  0
 68 69  2  0  0  0  0
 70 71  1  0  0  0  0
 70 75  1  0  0  0  0
 71 72  1  0  0  0  0
 71 73  1  0  0  0  0
 71 74  1  0  0  0  0
 75 76  1  0  0  0  0
 75 77  1  0  0  0  0
 75 78  1  0  0  0  0
 78 79  1  0  0  0  0
 78 80  1  0  0  0  0
 78 81  1  0  0  0  0
 81 82  1  0  0  0  0
 82 83  1  0  0  0  0
 82 84  1  0  0  0  0
 82 85  1  0  0  0  0
 86 87  1  0  0  0  0
 86 91  1  0  0  0  0
 87 88  1  0  0  0  0
 87 89  1  0  0  0  0
 87 90  1  0  0  0  0
 91 92  1  0  0  0  0
 91 93  1  0  0  0  0
 91 94  1  0  0  0  0
 94 95  1  0  0  0  0
 94 96  1  0  0  0  0
 94 97  1  0  0  0  0
 97 98  1  0  0  0  0
 98 99  1  0  0  0  0
 98100  1  0  0  0  0
 98101  1  0  0  0  0
102103  1  0  0  0  0
102113  1  0  0  0  0
103104  1  0  0  0  0
103105  1  0  0  0  0
103109  1  0  0  0  0
105106  1  0  0  0  0
105107  1  0  0  0  0
105108  1  0  0  0  0
109110  1  0  0  0  0
109111  1  0  0  0  0
109112  1  0  0  0  0
113114  1  0  0  0  0
M  END
$$$$
