
     RDKit          3D

  0  0  0  0  0  0  0  0  0  0999 V3000
M  V30 BEGIN CTAB
M  V30 COUNTS 114 121 0 0 0
M  V30 BEGIN ATOM
M  V30 1 C 5.541640 0.133015 1.458120 0
M  V30 2 C 5.012357 0.819985 0.386503 0
M  V30 3 C 3.687258 0.820384 -0.035865 0
M  V30 4 C 3.651156 1.672770 -1.194582 0
M  V30 5 C 4.636793 2.865418 -0.980966 0
M  V30 6 C 4.350095 0.956001 -2.378557 0
M  V30 7 C 2.761769 0.037823 0.693201 0
M  V30 8 N 1.310821 -0.021188 0.261885 0
M  V30 9 C 0.540764 1.235008 0.476978 0
M  V30 10 C -0.742440 1.209108 0.242865 0
M  V30 11 C -1.275798 2.575339 0.531157 0
M  V30 12 C -2.474895 3.218658 0.506728 0
M  V30 13 C -2.650732 4.521616 0.849719 0
M  V30 14 C -1.588110 5.314097 1.262584 0
M  V30 15 C -0.355223 4.698945 1.301038 0
M  V30 16 C 0.788031 5.353786 1.708925 0
M  V30 17 C 1.950195 4.610340 1.715910 0
M  V30 18 C 1.949557 3.295982 1.333266 0
M  V30 19 C 0.845858 2.602300 0.917829 0
M  V30 20 C -0.263676 3.402240 0.944157 0
M  V30 21 N -1.402319 -0.038104 -0.208911 0
M  V30 22 C -2.876074 0.048186 -0.310259 0
M  V30 23 C -3.661427 0.331102 -1.415443 0
M  V30 24 C -3.245275 0.951619 -2.638864 0
M  V30 25 C -4.446426 1.537786 -3.477769 0
M  V30 26 C -2.197692 2.011663 -2.670179 0
M  V30 27 C -5.038555 0.212716 -1.371165 0
M  V30 28 C -5.736284 -0.171531 -0.270891 0
M  V30 29 C -5.001551 -0.451273 0.876065 0
M  V30 30 C -3.630016 -0.331702 0.831318 0
M  V30 31 C -3.177796 -0.271446 2.250504 0
M  V30 32 C -4.024774 -1.210051 3.054261 0
M  V30 33 C -3.671799 1.114108 2.825428 0
M  V30 34 Eu 0.125160 -1.502135 -0.510729 0 VAL=7
M  V30 35 N -0.062074 -1.544627 1.440761 0
M  V30 36 C -0.574325 -2.195493 2.320415 0
M  V30 37 S -0.862538 -2.663904 3.786911 0
M  V30 38 O -1.112870 -2.709155 -1.170203 0
M  V30 39 C -1.190205 -3.466745 -2.261606 0
M  V30 40 C -1.879263 -3.395369 -0.182671 0
M  V30 41 C -0.768051 -4.395117 0.054223 0
M  V30 42 O 0.293345 -3.422123 -0.029621 0
M  V30 43 C 1.281992 -4.080455 0.571734 0
M  V30 44 O 1.592182 -1.862642 -1.753380 0
M  V30 45 C 2.174983 -3.037479 -2.002691 0
M  V30 46 C 1.807876 -1.349996 -3.092663 0
M  V30 47 C 1.236177 -0.029311 -2.782865 0
M  V30 48 O 0.066700 -0.594186 -2.257584 0
M  V30 49 C -0.583659 -0.893113 -3.373889 0
M  V30 50 C 3.311584 -0.665785 1.811272 0
M  V30 51 C 2.498710 -1.339750 2.782617 0
M  V30 52 C 3.414119 -1.923973 3.911486 0
M  V30 53 C 1.783060 -0.325111 3.715855 0
M  V30 54 C 4.635639 -0.614074 2.160084 0
M  V30 55 H 6.573320 0.146790 1.759459 0
M  V30 56 H 5.857040 1.361679 -0.079809 0
M  V30 57 H 2.715739 2.077139 -1.498398 0
M  V30 58 H 4.780127 3.061465 0.077291 0
M  V30 59 H 4.215433 3.753411 -1.522703 0
M  V30 60 H 5.551453 2.609300 -1.501854 0
M  V30 61 H 5.326735 1.446136 -2.620023 0
M  V30 62 H 4.532854 -0.098074 -2.096205 0
M  V30 63 H 3.755480 1.023267 -3.293961 0
M  V30 64 H -3.311576 2.594275 0.188299 0
M  V30 65 H -3.651877 4.927739 0.791039 0
M  V30 66 H -1.687991 6.352677 1.544134 0
M  V30 67 H 0.754924 6.390229 2.002100 0
M  V30 68 H 2.902137 5.032308 2.022095 0
M  V30 69 H 2.834072 2.702534 1.370470 0
M  V30 70 H -2.975295 0.182737 -3.357686 0
M  V30 71 H -5.107011 2.128644 -2.870018 0
M  V30 72 H -4.939777 0.670910 -3.915608 0
M  V30 73 H -3.952234 2.099763 -4.301872 0
M  V30 74 H -2.675594 2.936313 -2.284743 0
M  V30 75 H -2.056768 2.324281 -3.775077 0
M  V30 76 H -1.204543 1.792541 -2.375031 0
M  V30 77 H -5.724862 0.395123 -2.193142 0
M  V30 78 H -6.829754 -0.270260 -0.259237 0
M  V30 79 H -5.634250 -0.750473 1.701085 0
M  V30 80 H -2.178032 -0.392725 2.493908 0
M  V30 81 H -4.945263 -0.724342 3.476731 0
M  V30 82 H -4.259739 -2.166924 2.540625 0
M  V30 83 H -3.494971 -1.544423 4.000059 0
M  V30 84 H -4.333471 1.601230 2.120421 0
M  V30 85 H -4.092322 1.007400 3.814127 0
M  V30 86 H -2.737479 1.696122 2.930045 0
M  V30 87 H -0.541633 -3.243297 -3.108994 0
M  V30 88 H -2.286954 -3.459134 -2.648955 0
M  V30 89 H -1.041771 -4.504397 -2.066076 0
M  V30 90 H -2.086854 -2.735850 0.633221 0
M  V30 91 H -2.747714 -3.831192 -0.686856 0
M  V30 92 H -0.795898 -4.738801 1.140643 0
M  V30 93 H -0.581908 -5.159551 -0.621519 0
M  V30 94 H 2.212021 -3.505772 0.644590 0
M  V30 95 H 1.365408 -5.090388 0.150895 0
M  V30 96 H 1.047618 -4.239185 1.700150 0
M  V30 97 H 2.338057 -3.879532 -1.430548 0
M  V30 98 H 3.265551 -2.777725 -2.371498 0
M  V30 99 H 1.775109 -3.437074 -3.010393 0
M  V30 100 H 1.429641 -2.006871 -3.835007 0
M  V30 101 H 2.895911 -1.248623 -3.134160 0
M  V30 102 H 1.682546 0.515737 -1.974202 0
M  V30 103 H 1.003047 0.490247 -3.639372 0
M  V30 104 H -0.095197 -1.501073 -4.142212 0
M  V30 105 H -0.757482 0.082515 -3.924444 0
M  V30 106 H -1.626877 -1.304243 -3.217536 0
M  V30 107 H 2.035722 -2.261236 2.583412 0
M  V30 108 H 3.898201 -1.092184 4.440794 0
M  V30 109 H 2.689914 -2.336399 4.690806 0
M  V30 110 H 4.069549 -2.695136 3.534841 0
M  V30 111 H 1.049850 0.255780 3.142728 0
M  V30 112 H 1.355486 -0.886410 4.538569 0
M  V30 113 H 2.591193 0.318230 4.133635 0
M  V30 114 H 5.096982 -1.139383 2.978525 0
M  V30 END ATOM
M  V30 BEGIN BOND
M  V30 1 2 1 2
M  V30 2 1 2 3
M  V30 3 1 3 4
M  V30 4 1 4 5
M  V30 5 1 4 6
M  V30 6 2 3 7
M  V30 7 1 7 8
M  V30 8 1 8 9
M  V30 9 2 9 10
M  V30 10 1 10 11
M  V30 11 2 11 12
M  V30 12 1 12 13
M  V30 13 2 13 14
M  V30 14 1 14 15
M  V30 15 2 15 16
M  V30 16 1 16 17
M  V30 17 2 17 18
M  V30 18 1 18 19
M  V30 19 2 19 20
M  V30 20 1 10 21
M  V30 21 1 21 22
M  V30 22 2 22 23
M  V30 23 1 23 24
M  V30 24 1 24 25
M  V30 25 1 24 26
M  V30 26 1 23 27
M  V30 27 2 27 28
M  V30 28 1 28 29
M  V30 29 2 29 30
M  V30 30 1 30 31
M  V30 31 1 31 32
M  V30 32 1 31 33
M  V30 33 1 21 34
M  V30 34 1 34 35
M  V30 35 2 35 36
M  V30 36 2 36 37
M  V30 37 9 38 34
M  V30 38 1 38 39
M  V30 39 1 38 40
M  V30 40 1 40 41
M  V30 41 1 41 42
M  V30 42 1 42 43
M  V30 43 9 44 34
M  V30 44 1 44 45
M  V30 45 1 44 46
M  V30 46 1 46 47
M  V30 47 1 47 48
M  V30 48 1 48 49
M  V30 49 1 7 50
M  V30 50 1 50 51
M  V30 51 1 51 52
M  V30 52 1 51 53
M  V30 53 2 50 54
M  V30 54 1 54 1
M  V30 55 1 34 8
M  V30 56 1 19 9
M  V30 57 1 30 22
M  V30 58 9 42 34
M  V30 59 1 20 11
M  V30 60 9 48 34
M  V30 61 1 20 15
M  V30 62 1 1 55
M  V30 63 1 2 56
M  V30 64 1 4 57
M  V30 65 1 5 58
M  V30 66 1 5 59
M  V30 67 1 5 60
M  V30 68 1 6 61
M  V30 69 1 6 62
M  V30 70 1 6 63
M  V30 71 1 12 64
M  V30 72 1 13 65
M  V30 73 1 14 66
M  V30 74 1 16 67
M  V30 75 1 17 68
M  V30 76 1 18 69
M  V30 77 1 24 70
M  V30 78 1 25 71
M  V30 79 1 25 72
M  V30 80 1 25 73
M  V30 81 1 26 74
M  V30 82 1 26 75
M  V30 83 1 26 76
M  V30 84 1 27 77
M  V30 85 1 28 78
M  V30 86 1 29 79
M  V30 87 1 31 80
M  V30 88 1 32 81
M  V30 89 1 32 82
M  V30 90 1 32 83
M  V30 91 1 33 84
M  V30 92 1 33 85
M  V30 93 1 33 86
M  V30 94 1 39 87
M  V30 95 1 39 88
M  V30 96 1 39 89
M  V30 97 1 40 90
M  V30 98 1 40 91
M  V30 99 1 41 92
M  V30 100 1 41 93
M  V30 101 1 43 94
M  V30 102 1 43 95
M  V30 103 1 43 96
M  V30 104 1 45 97
M  V30 105 1 45 98
M  V30 106 1 45 99
M  V30 107 1 46 100
M  V30 108 1 46 101
M  V30 109 1 47 102
M  V30 110 1 47 103
M  V30 111 1 49 104
M  V30 112 1 49 105
M  V30 113 1 49 106
M  V30 114 1 51 107
M  V30 115 1 52 108
M  V30 116 1 52 109
M  V30 117 1 52 110
M  V30 118 1 53 111
M  V30 119 1 53 112
M  V30 120 1 53 113
M  V30 121 1 54 114
M  V30 END BOND
M  V30 END CTAB
M  END
