
     RDKit          3D

  0  0  0  0  0  0  0  0  0  0999 V3000
M  V30 BEGIN CTAB
M  V30 COUNTS 47 52 0 0 0
M  V30 BEGIN ATOM
M  V30 1 C 1.580424 -0.521892 -1.100228 0
M  V30 2 N 0.492634 -0.132614 -1.680038 0
M  V30 3 C -0.252597 0.296719 -2.804620 0
M  V30 4 C -1.717442 0.079768 -2.746796 0
M  V30 5 C -2.480566 -0.375249 -1.618920 0
M  V30 6 N -2.118801 -0.129685 -0.271957 0
M  V30 7 C -2.070533 0.291492 0.963956 0
M  V30 8 C -1.561838 0.417307 2.328015 0
M  V30 9 C -2.797679 1.590987 0.647472 0
M  V30 10 C -3.869290 2.193641 1.341612 0
M  V30 11 C -4.404942 3.401235 0.911603 0
M  V30 12 C -3.831393 3.953687 -0.208745 0
M  V30 13 C -2.787330 3.456297 -0.957379 0
M  V30 14 C -2.229800 2.233805 -0.535643 0
M  V30 15 O -1.178806 1.791675 -1.309802 0
M  V30 16 Cu -0.567464 -0.128085 -0.380936 0 CFG=1 VAL=4
M  V30 17 O 0.283346 0.325741 0.846311 0
M  V30 18 C 1.330951 -0.447855 1.344948 0
M  V30 19 C 1.747833 -0.792299 2.652823 0
M  V30 20 C 2.854832 -1.601691 2.780235 0
M  V30 21 C 3.503144 -2.038022 1.653618 0
M  V30 22 C 4.594957 -2.845480 1.807336 0
M  V30 23 C 5.343383 -3.365356 0.772472 0
M  V30 24 C 4.976802 -3.057102 -0.543424 0
M  V30 25 C 3.876158 -2.242855 -0.701004 0
M  V30 26 C 3.161030 -1.747535 0.359869 0
M  V30 27 C 2.053092 -0.936118 0.231510 0
M  V30 28 H 2.407144 -0.546181 -1.740777 0
M  V30 29 H -0.081313 1.428753 -2.804628 0
M  V30 30 H 0.107453 0.067732 -3.826647 0
M  V30 31 H -2.211540 0.957161 -3.219474 0
M  V30 32 H -1.929262 -0.692701 -3.531654 0
M  V30 33 H -3.550586 0.014287 -1.685578 0
M  V30 34 H -2.690806 -1.498289 -1.622546 0
M  V30 35 H -2.493617 0.600636 2.948912 0
M  V30 36 H -1.184186 -0.534359 2.779196 0
M  V30 37 H -0.853056 1.166934 2.596329 0
M  V30 38 H -4.130270 1.573983 2.223076 0
M  V30 39 H -5.201291 3.757702 1.504851 0
M  V30 40 H -4.258767 4.892228 -0.533436 0
M  V30 41 H -2.345269 3.893356 -1.830631 0
M  V30 42 H 1.136613 -0.366067 3.434625 0
M  V30 43 H 3.093694 -1.807382 3.789216 0
M  V30 44 H 4.921706 -3.115781 2.798565 0
M  V30 45 H 6.196953 -3.998666 0.956897 0
M  V30 46 H 5.543651 -3.449294 -1.368480 0
M  V30 47 H 3.592643 -2.014569 -1.712672 0
M  V30 END ATOM
M  V30 BEGIN BOND
M  V30 1 2 1 2
M  V30 2 1 2 3
M  V30 3 1 3 4
M  V30 4 1 4 5
M  V30 5 1 5 6
M  V30 6 2 6 7
M  V30 7 1 7 8
M  V30 8 1 7 9
M  V30 9 2 9 10
M  V30 10 1 10 11
M  V30 11 2 11 12
M  V30 12 1 12 13
M  V30 13 2 13 14
M  V30 14 1 14 15
M  V30 15 1 15 16
M  V30 16 1 16 17
M  V30 17 1 17 18
M  V30 18 2 18 19
M  V30 19 1 19 20
M  V30 20 2 20 21
M  V30 21 1 21 22
M  V30 22 2 22 23
M  V30 23 1 23 24
M  V30 24 2 24 25
M  V30 25 1 25 26
M  V30 26 2 26 27
M  V30 27 1 27 1
M  V30 28 9 2 16
M  V30 29 1 27 18
M  V30 30 9 6 16
M  V30 31 1 26 21
M  V30 32 1 14 9
M  V30 33 1 1 28
M  V30 34 1 3 29
M  V30 35 1 3 30
M  V30 36 1 4 31
M  V30 37 1 4 32
M  V30 38 1 5 33
M  V30 39 1 5 34
M  V30 40 1 8 35
M  V30 41 1 8 36
M  V30 42 1 8 37
M  V30 43 1 10 38
M  V30 44 1 11 39
M  V30 45 1 12 40
M  V30 46 1 13 41
M  V30 47 1 19 42
M  V30 48 1 20 43
M  V30 49 1 22 44
M  V30 50 1 23 45
M  V30 51 1 24 46
M  V30 52 1 25 47
M  V30 END BOND
M  V30 END CTAB
M  END
