
 OpenBabel09252515523D

 71 77  0  0  0  0  0  0  0  0999 V2000
    0.9300   -0.0712    0.0049 C   0  0  0  0  0  0  0  0  0  0  0  0
    0.3267   -1.7705    0.1622 S   0  0  0  0  0  0  0  0  0  0  0  0
   -1.4833   -1.7704    0.1622 C   0  0  0  0  0  0  0  0  0  0  0  0
    0.8368   -2.6040   -1.0156 O   0  0  0  0  0  0  0  0  0  0  0  0
    0.2039   -5.1399   -1.1972 U   0  3  0  0  0  0  0  0  0  0  0  0
   -2.0720   -5.9144   -2.2390 O   0  0  0  0  0  0  0  0  0  0  0  0
   -3.2502   -5.1539   -2.0158 C   0  0  0  0  0  0  0  0  0  0  0  0
   -4.3542   -5.5295   -2.5212 O   0  0  0  0  0  0  0  0  0  0  0  0
    1.0577  -11.3698   -2.7709 C   0  0  0  0  0  0  0  0  0  0  0  0
   -0.0044  -10.4234   -2.4006 N   0  0  0  0  0  0  0  0  0  0  0  0
   -1.0355   -9.9210   -3.4119 C   0  0  0  0  0  0  0  0  0  0  0  0
   -0.3898   -8.8843   -4.3327 C   0  0  0  0  0  0  0  0  0  0  0  0
   -1.1882   -7.5813   -4.2781 N   0  0  0  0  0  4  0  0  0  0  0  0
   -0.6213   -6.6753   -3.1831 C   0  0  0  0  0  0  0  0  0  0  0  0
   -1.7261   -6.3306   -2.1811 C   0  0  0  0  0  0  0  0  0  0  0  0
   -1.1105   -5.7399   -0.9119 N   0  0  0  0  0  0  0  0  0  0  0  0
   -1.0002   -6.7937    0.1906 C   0  0  0  0  0  0  0  0  0  0  0  0
   -0.3511   -8.0660   -0.3553 C   0  0  0  0  0  0  0  0  0  0  0  0
   -0.5067   -9.1944    0.6670 N   0  0  0  0  0  0  0  0  0  0  0  0
    0.0733  -10.4905    0.0979 C   0  0  0  0  0  0  0  0  0  0  0  0
   -0.7197  -10.9122   -1.1397 C   0  0  0  0  0  0  0  0  0  0  0  0
    3.5903   -3.9558   -0.7306 C   0  0  0  0  0  0  0  0  0  0  0  0
    3.3938   -3.9811   -2.2376 C   0  0  0  0  0  0  0  0  0  0  0  0
    4.3395   -3.6239   -3.0078 O   0  0  0  0  0  0  0  0  0  0  0  0
    2.1535   -4.4037   -2.7850 O   0  0  0  0  0  0  0  0  0  0  0  0
   -1.9378   -4.5630   -0.4274 C   0  0  0  0  0  0  0  0  0  0  0  0
   -1.1305   -3.4885   -0.5152 C   0  0  0  0  0  0  0  0  0  0  0  0
   -1.4837   -2.3040   -0.2194 O   0  0  0  0  0  0  0  0  0  0  0  0
    0.0889   -3.8221   -0.9523 O   0  0  0  0  0  0  0  0  0  0  0  0
   -0.7021   -7.0922   -2.6912 O   0  0  0  0  0  0  0  0  0  0  0  0
   -0.8421   -8.5004   -2.1082 S   0  0  0  0  0  0  0  0  0  0  0  0
   -1.9815   -8.4607   -0.7024 C   0  0  0  0  0  0  0  0  0  0  0  0
   -1.4885   -9.6173   -3.3774 C   0  0  0  0  0  0  0  0  0  0  0  0
    0.5733    0.5116    0.8283 H   0  0  0  0  0  0  0  0  0  0  0  0
    0.5733    0.3505   -0.9116 H   0  0  0  0  0  0  0  0  0  0  0  0
    2.0000   -0.0712    0.0049 H   0  0  0  0  0  0  0  0  0  0  0  0
   -1.8400   -1.3487   -0.7543 H   0  0  0  0  0  0  0  0  0  0  0  0
   -1.8400   -2.7750    0.2552 H   0  0  0  0  0  0  0  0  0  0  0  0
   -1.8400   -1.1877    0.9856 H   0  0  0  0  0  0  0  0  0  0  0  0
    1.7760  -11.4272   -1.9799 H   0  0  0  0  0  0  0  0  0  0  0  0
    0.6315  -12.3371   -2.9366 H   0  0  0  0  0  0  0  0  0  0  0  0
    0.9726  -10.1369   -2.4616 H   0  0  0  0  0  0  0  0  0  0  0  0
   -1.3890  -10.7442   -3.9969 H   0  0  0  0  0  0  0  0  0  0  0  0
   -1.8557   -9.4728   -2.8911 H   0  0  0  0  0  0  0  0  0  0  0  0
   -0.3838   -9.2554   -5.3363 H   0  0  0  0  0  0  0  0  0  0  0  0
    0.6145   -8.7002   -4.0127 H   0  0  0  0  0  0  0  0  0  0  0  0
   -1.8454   -7.7556   -5.0384 H   0  0  0  0  0  0  0  0  0  0  0  0
   -0.2471   -5.7751   -3.6241 H   0  0  0  0  0  0  0  0  0  0  0  0
    0.1733   -7.1825   -2.6769 H   0  0  0  0  0  0  0  0  0  0  0  0
   -2.2652   -7.2202   -1.9305 H   0  0  0  0  0  0  0  0  0  0  0  0
   -2.3917   -5.6161   -2.6185 H   0  0  0  0  0  0  0  0  0  0  0  0
   -2.1131   -5.8455   -1.0670 H   0  0  0  0  0  0  0  0  0  0  0  0
   -1.9812   -7.0286    0.5473 H   0  0  0  0  0  0  0  0  0  0  0  0
   -0.4026   -6.4074    0.9897 H   0  0  0  0  0  0  0  0  0  0  0  0
    0.6884   -7.8880   -0.5360 H   0  0  0  0  0  0  0  0  0  0  0  0
   -0.8285   -8.3457   -1.2712 H   0  0  0  0  0  0  0  0  0  0  0  0
   -0.8742   -9.6478    1.5035 H   0  0  0  0  0  0  0  0  0  0  0  0
    0.0104  -11.2610    0.8378 H   0  0  0  0  0  0  0  0  0  0  0  0
    1.0967  -10.3334   -0.1722 H   0  0  0  0  0  0  0  0  0  0  0  0
   -1.6984  -10.4817   -1.0976 H   0  0  0  0  0  0  0  0  0  0  0  0
   -0.7977  -11.9791   -1.1658 H   0  0  0  0  0  0  0  0  0  0  0  0
    3.8162   -2.9581   -0.4170 H   0  0  0  0  0  0  0  0  0  0  0  0
    2.6942   -4.2869   -0.2485 H   0  0  0  0  0  0  0  0  0  0  0  0
   -2.8259   -4.4381   -1.0109 H   0  0  0  0  0  0  0  0  0  0  0  0
   -2.2463   -4.7160    0.5857 H   0  0  0  0  0  0  0  0  0  0  0  0
   -2.9392   -8.1131   -1.0291 H   0  0  0  0  0  0  0  0  0  0  0  0
   -2.0794   -9.4452   -0.2948 H   0  0  0  0  0  0  0  0  0  0  0  0
   -1.5993   -7.8004    0.0479 H   0  0  0  0  0  0  0  0  0  0  0  0
   -2.4463   -9.2697   -3.7042 H   0  0  0  0  0  0  0  0  0  0  0  0
   -0.8150   -9.6407   -4.2085 H   0  0  0  0  0  0  0  0  0  0  0  0
   -1.5864  -10.6018   -2.9698 H   0  0  0  0  0  0  0  0  0  0  0  0
  1  2  1  0  0  0  0
  1 34  1  0  0  0  0
  1 35  1  0  0  0  0
  1 36  1  0  0  0  0
  2  3  1  0  0  0  0
  2  4  2  0  0  0  0
  3 37  1  0  0  0  0
  3 38  1  0  0  0  0
  3 39  1  0  0  0  0
  4  5  1  0  0  0  0
  5  6  1  0  0  0  0
  5 10  1  0  0  0  0
  5 13  1  0  0  0  0
  5 16  1  0  0  0  0
  5 19  1  0  0  0  0
  5 25  1  0  0  0  0
  5 29  1  0  0  0  0
  5 30  1  0  0  0  0
  6  7  1  0  0  0  0
  7  8  2  0  0  0  0
  7  9  1  0  0  0  0
  9 10  1  0  0  0  0
  9 40  1  0  0  0  0
  9 41  1  0  0  0  0
 10 11  1  0  0  0  0
 10 21  1  0  0  0  0
 10 42  1  0  0  0  0
 11 12  1  0  0  0  0
 11 43  1  0  0  0  0
 11 44  1  0  0  0  0
 12 13  1  0  0  0  0
 12 45  1  0  0  0  0
 12 46  1  0  0  0  0
 13 14  1  0  0  0  0
 13 47  1  0  0  0  0
 14 15  1  0  0  0  0
 14 48  1  0  0  0  0
 14 49  1  0  0  0  0
 15 16  1  0  0  0  0
 15 50  1  0  0  0  0
 15 51  1  0  0  0  0
 16 17  1  0  0  0  0
 16 26  1  0  0  0  0
 16 52  1  0  0  0  0
 17 18  1  0  0  0  0
 17 53  1  0  0  0  0
 17 54  1  0  0  0  0
 18 19  1  0  0  0  0
 18 55  1  0  0  0  0
 18 56  1  0  0  0  0
 19 20  1  0  0  0  0
 19 22  1  0  0  0  0
 19 57  1  0  0  0  0
 20 21  1  0  0  0  0
 20 58  1  0  0  0  0
 20 59  1  0  0  0  0
 21 60  1  0  0  0  0
 21 61  1  0  0  0  0
 22 23  1  0  0  0  0
 22 62  1  0  0  0  0
 22 63  1  0  0  0  0
 23 24  2  0  0  0  0
 23 25  1  0  0  0  0
 26 27  1  0  0  0  0
 26 64  1  0  0  0  0
 26 65  1  0  0  0  0
 27 28  2  0  0  0  0
 27 29  1  0  0  0  0
 30 31  2  0  0  0  0
 31 32  1  0  0  0  0
 31 33  1  0  0  0  0
 32 66  1  0  0  0  0
 32 67  1  0  0  0  0
 32 68  1  0  0  0  0
 33 69  1  0  0  0  0
 33 70  1  0  0  0  0
 33 71  1  0  0  0  0
M  CHG  1   5   1
M  END
$$$$
