
  --CCDC--092525    3D                              

 73 75  0  0  0  0  0  0  0  0999 V2000
    0.7515    0.0045   -0.3531 H      0
    1.1402    1.0163   -0.3051 C      0
    1.4672    1.6874   -1.4625 C      0
    1.3381    1.2004   -2.4234 H      0
    1.9626    2.9797   -1.4062 C      0
    2.2279    3.4838   -2.3271 H      0
    2.1290    3.6253   -0.1838 C      0
    2.6633    5.0398   -0.0880 C      0
    3.1965    5.9280   -0.7087 C      0
    3.7127    6.2469   -2.0891 C      0
    2.9734    5.8472   -3.1994 C      0
    2.0198    5.3513   -3.0556 H      0
    3.4258    6.0837   -4.4868 C      0
    2.8342    5.7574   -5.3358 H      0
    4.6214    6.7334   -4.6938 C      0
    4.9765    6.9165   -5.7025 H      0
    5.3615    7.1523   -3.6114 C      0
    6.3013    7.6712   -3.7684 H      0
    4.9120    6.9155   -2.3230 C      0
    5.5056    7.2635   -1.4851 H      0
    3.1366    6.4134    1.1657 Co     3
    2.8796    6.3032    3.0774 N      0
    2.7552    6.2054    4.2115 C      0
    2.5855    6.0472    5.6492 C      0
    1.5378    5.8943    5.8994 H      0
    2.9348    6.9313    6.1785 H      0
    3.1492    5.1902    6.0121 H      0
    4.9781    5.2925    1.9841 P      0
    5.7556    5.1025    0.3586 C      0
    6.7329    4.6361    0.4634 H      0
    5.9032    6.0567   -0.1346 H      0
    5.1538    4.4679   -0.2883 H      0
    5.2575    3.5799    2.4947 C      0
    4.7960    3.3852    3.4605 H      0
    4.8334    2.8875    1.7706 H      0
    6.3220    3.3716    2.5796 H      0
    5.6897    6.3791    3.2468 C      0
    5.5721    5.9413    4.2354 H      0
    5.2077    7.3500    3.2627 H      0
    6.7540    6.5245    3.0742 H      0
    1.0183    7.3015    1.5575 P      0
    0.6368    8.0043    3.1853 C      0
   -0.0747    8.8215    3.0862 H      0
    1.5064    8.3779    3.7139 H      0
    0.1762    7.2490    3.8181 H      0
    0.9459    8.6965    0.4111 C      0
   -0.0512    9.1320    0.4170 H      0
    1.1578    8.3768   -0.6060 H      0
    1.6426    9.4806    0.6919 H      0
    0.2670    5.6722    1.7958 C      0
    0.2593    5.0906    0.8785 H      0
   -0.7674    5.7807    2.1152 H      0
    0.7962    5.1090    2.5615 H      0
    4.2264    8.4627    1.0092 P      0
    3.5301    9.2191    2.4936 C      0
    2.4858    9.4622    2.3336 H      0
    4.0457   10.1505    2.7182 H      0
    3.6215    8.5661    3.3585 H      0
    5.9327    9.0471    1.1732 C      0
    6.5593    8.6194    0.3934 H      0
    6.3658    8.7825    2.1340 H      0
    5.9734   10.1302    1.0785 H      0
    3.7646    9.1021   -0.6202 C      0
    3.3228   10.0924   -0.5308 H      0
    3.0512    8.4542   -1.1202 H      0
    4.6417    9.1901   -1.2572 H      0
    1.8036    2.9275    0.9759 C      0
    1.9364    3.4031    1.9419 H      0
    1.3112    1.6348    0.9133 C      0
    1.0591    1.1074    1.8274 H      0
    3.7763    4.6906    2.3749 H      0
   -0.0429    7.0850    0.6703 H      0
    5.1524    7.4237    1.0556 H      0
  1  2  1
  2  3  4
  3  4  1
  3  5  4
  5  6  1
  5  7  4
  7  8  1
  8  9  3
  9 10  1
 10 11  4
 11 12  1
 11 13  4
 13 14  1
 13 15  4
 15 16  1
 15 17  4
 17 18  1
 17 19  4
 10 19  4
 19 20  1
  9 21  1
  8 21  1
 21 22  1
 22 23  3
 23 24  1
 24 25  1
 24 26  1
 24 27  1
 21 28  1
 28 29  1
 29 30  1
 29 31  1
 29 32  1
 28 33  1
 33 34  1
 33 35  1
 33 36  1
 28 37  1
 37 38  1
 37 39  1
 37 40  1
 21 41  1
 41 42  1
 42 43  1
 42 44  1
 42 45  1
 41 46  1
 46 47  1
 46 48  1
 46 49  1
 41 50  1
 50 51  1
 50 52  1
 50 53  1
 21 54  1
 54 55  1
 55 56  1
 55 57  1
 55 58  1
 54 59  1
 59 60  1
 59 61  1
 59 62  1
 54 63  1
 63 64  1
 63 65  1
 63 66  1
  7 67  4
 67 68  1
 67 69  4
  2 69  4
 69 70  1
 28 71  1
 41 72  1
 54 73  1
M  CHG  1  21   1
M  END
$$$$
