
  --CCDC--092525    3D                              

 57 64  0  0  0  0  0  0  0  0999 V2000
    0.4460   -1.2432   -3.6350 C      0
    1.7756   -0.9346   -3.1273 C      0
    2.8038   -0.6895   -2.6975 N      0
    4.7854   -0.2349   -1.8555 Fe     1
    6.7330    0.2274   -0.9438 N      0
    7.7433    0.4673   -0.4709 C      0
    9.0162    0.7749    0.1664 C      0
    4.0632   -0.6938    0.1712 C      0
    3.5737   -2.0164    0.3069 N      0
    4.4785   -3.1541    0.1132 C      0
    5.5535   -2.9683   -0.8660 N      0
    6.9024   -3.3249   -0.7478 C      0
    7.4915   -3.0522   -1.9224 C      0
    6.5071   -2.5303   -2.7714 N      0
    6.6400   -2.1271   -4.1752 C      0
    5.7490   -1.0440   -4.6010 N      0
    4.9073   -0.9866   -5.7189 C      0
    4.3246    0.2246   -5.7233 C      0
    4.7922    0.9159   -4.5989 N      0
    4.5147    2.2849   -4.1542 C      0
    3.6425    2.3272   -2.9793 N      0
    2.3250    2.7949   -2.9056 C      0
    1.8990    2.5908   -1.6515 C      0
    2.9539    1.9923   -0.9542 N      0
    2.9732    1.5083    0.4247 C      0
    2.8862    0.0456    0.4457 N      0
    1.7844   -0.7768    0.7125 C      0
    2.2075   -2.0478    0.6172 C      0
    4.1338    1.8610   -1.7305 C      0
    5.6833    0.1365   -3.8248 C      0
    5.2615   -2.3677   -2.1152 C      0
    0.0345   -0.3958   -4.1780 H      0
   -0.2306   -1.4797   -2.8167 H      0
    0.4750   -2.0973   -4.3090 H      0
    8.8898    1.5504    0.9189 H      0
    9.7427    1.1279   -0.5632 H      0
    9.4254   -0.1074    0.6539 H      0
    4.9281   -3.4102    1.0804 H      0
    3.8818   -4.0193   -0.2013 H      0
    7.3758   -3.7729    0.1200 H      0
    8.5302   -3.2356   -2.1780 H      0
    7.6776   -1.8204   -4.3555 H      0
    6.4474   -3.0008   -4.8100 H      0
    4.7694   -1.7697   -6.4572 H      0
    3.6308    0.6002   -6.4679 H      0
    5.4605    2.7866   -3.9166 H      0
    4.0386    2.8411   -4.9707 H      0
    1.7468    3.2187   -3.7192 H      0
    0.9133    2.8161   -1.2583 H      0
    3.9023    1.8297    0.9117 H      0
    2.1309    1.9431    0.9773 H      0
    0.7758   -0.4516    0.9487 H      0
    1.6047   -2.9387    0.7638 H      0
    4.8369   -0.4808    0.9242 H      0
    4.9365    2.5101   -1.3459 H      0
    6.6676    0.6217   -3.7353 H      0
    4.4571   -2.9050   -2.6399 H      0
  1  2  1
  2  3  3
  3  4  1
  4  5  1
  5  6  3
  6  7  1
  4  8  1
  8  9  1
  9 10  1
 10 11  1
 11 12  1
 12 13  2
 13 14  1
 14 15  1
 15 16  1
 16 17  1
 17 18  2
 18 19  1
 19 20  1
 20 21  1
 21 22  1
 22 23  2
 23 24  1
 24 25  1
 25 26  1
  8 26  1
 26 27  1
 27 28  2
  9 28  1
 24 29  1
  4 29  1
 21 29  1
 19 30  1
  4 30  1
 16 30  1
 14 31  1
  4 31  1
 11 31  1
  1 32  1
  1 33  1
  1 34  1
  7 35  1
  7 36  1
  7 37  1
 10 38  1
 10 39  1
 12 40  1
 13 41  1
 15 42  1
 15 43  1
 17 44  1
 18 45  1
 20 46  1
 20 47  1
 22 48  1
 23 49  1
 25 50  1
 25 51  1
 27 52  1
 28 53  1
  8 54  1
 29 55  1
 30 56  1
 31 57  1
M  CHG  1   4   3
M  END
$$$$
