
     RDKit          3D

  0  0  0  0  0  0  0  0  0  0999 V3000
M  V30 BEGIN CTAB
M  V30 COUNTS 53 60 0 0 0
M  V30 BEGIN ATOM
M  V30 1 C 4.364136 2.212558 0.824760 0
M  V30 2 C 3.166202 1.547321 0.602285 0
M  V30 3 N 2.134327 0.953093 0.398579 0
M  V30 4 Fe 0.369386 -0.063818 0.013377 0 CHG=3 VAL=6
M  V30 5 N 1.694747 -1.625276 -0.323611 0
M  V30 6 C 2.472979 -2.527579 -0.529708 0
M  V30 7 C 3.380991 -3.543767 -0.769885 0
M  V30 8 C -0.709251 0.790629 1.625558 0 RAD=2 VAL=3
M  V30 9 N -0.461450 0.481727 2.944962 0
M  V30 10 C -0.231063 -0.873024 3.467712 0
M  V30 11 N -0.762230 -1.661537 2.395930 0
M  V30 12 C -1.137341 -3.057552 2.328026 0
M  V30 13 C -1.856192 -3.253211 1.205817 0
M  V30 14 N -1.938288 -1.963061 0.552774 0
M  V30 15 C -2.842632 -1.584035 -0.514911 0
M  V30 16 N -1.846940 -1.372003 -1.546766 0
M  V30 17 C -1.744197 -2.159012 -2.760950 0
M  V30 18 C -0.926303 -1.522729 -3.619095 0
M  V30 19 N -0.502699 -0.316890 -2.944780 0
M  V30 20 C 0.177929 0.863923 -3.449857 0
M  V30 21 N -0.081733 1.808966 -2.397034 0
M  V30 22 C 0.031776 3.250610 -2.338654 0
M  V30 23 C -0.610336 3.678032 -1.233788 0
M  V30 24 N -1.136881 2.494977 -0.584326 0
M  V30 25 C -2.143019 2.465378 0.459385 0
M  V30 26 N -1.322734 1.927217 1.509938 0
M  V30 27 C -1.013546 2.630914 2.740659 0
M  V30 28 C -0.488233 1.759793 3.622202 0
M  V30 29 C -0.530087 1.492947 -1.127615 0 RAD=2 VAL=3
M  V30 30 C -0.889367 -0.502685 -1.634189 0 RAD=2 VAL=3
M  V30 31 C -1.045251 -1.217418 1.116160 0 RAD=2 VAL=3
M  V30 32 H 5.265533 1.575135 0.955633 0
M  V30 33 H 4.275540 2.808309 1.780337 0
M  V30 34 H 4.555017 2.857239 -0.060010 0
M  V30 35 H 3.419387 -3.707020 -1.890640 0
M  V30 36 H 3.041063 -4.453073 -0.230653 0
M  V30 37 H 4.434767 -3.347240 -0.473119 0
M  V30 38 H -0.758511 -1.034285 4.441526 0
M  V30 39 H 0.851847 -1.024130 3.621063 0
M  V30 40 H -0.902053 -3.864822 3.044988 0
M  V30 41 H -2.253258 -4.251211 0.943094 0
M  V30 42 H -3.343032 -0.633087 -0.234990 0
M  V30 43 H -3.593424 -2.347490 -0.743152 0
M  V30 44 H -2.184503 -3.119427 -3.089279 0
M  V30 45 H -0.634792 -1.841940 -4.622924 0
M  V30 46 H 1.277672 0.649825 -3.532814 0
M  V30 47 H -0.162968 1.192276 -4.436577 0
M  V30 48 H 0.546718 3.913745 -3.057539 0
M  V30 49 H -0.648353 4.756629 -0.993414 0
M  V30 50 H -2.869839 1.671211 0.189767 0
M  V30 51 H -2.611353 3.432221 0.658548 0
M  V30 52 H -1.126431 3.684755 3.060640 0
M  V30 53 H -0.151733 1.967893 4.636562 0
M  V30 END ATOM
M  V30 BEGIN BOND
M  V30 1 1 1 2
M  V30 2 3 2 3
M  V30 3 9 3 4
M  V30 4 9 5 4
M  V30 5 3 5 6
M  V30 6 1 6 7
M  V30 7 1 4 8
M  V30 8 1 8 9
M  V30 9 1 9 10
M  V30 10 1 10 11
M  V30 11 1 11 12
M  V30 12 2 12 13
M  V30 13 1 13 14
M  V30 14 1 14 15
M  V30 15 1 15 16
M  V30 16 1 16 17
M  V30 17 2 17 18
M  V30 18 1 18 19
M  V30 19 1 19 20
M  V30 20 1 20 21
M  V30 21 1 21 22
M  V30 22 2 22 23
M  V30 23 1 23 24
M  V30 24 1 24 25
M  V30 25 1 25 26
M  V30 26 1 26 27
M  V30 27 2 27 28
M  V30 28 1 24 29
M  V30 29 1 19 30
M  V30 30 1 14 31
M  V30 31 1 29 4
M  V30 32 1 30 4
M  V30 33 1 31 4
M  V30 34 1 26 8
M  V30 35 1 28 9
M  V30 36 1 31 11
M  V30 37 1 30 16
M  V30 38 1 29 21
M  V30 39 1 1 32
M  V30 40 1 1 33
M  V30 41 1 1 34
M  V30 42 1 7 35
M  V30 43 1 7 36
M  V30 44 1 7 37
M  V30 45 1 10 38
M  V30 46 1 10 39
M  V30 47 1 12 40
M  V30 48 1 13 41
M  V30 49 1 15 42
M  V30 50 1 15 43
M  V30 51 1 17 44
M  V30 52 1 18 45
M  V30 53 1 20 46
M  V30 54 1 20 47
M  V30 55 1 22 48
M  V30 56 1 23 49
M  V30 57 1 25 50
M  V30 58 1 25 51
M  V30 59 1 27 52
M  V30 60 1 28 53
M  V30 END BOND
M  V30 END CTAB
M  END
