
     RDKit          3D

  0  0  0  0  0  0  0  0  0  0999 V3000
M  V30 BEGIN CTAB
M  V30 COUNTS 43 45 0 0 0
M  V30 BEGIN ATOM
M  V30 1 C 5.053147 -1.417261 0.349737 0
M  V30 2 C 4.947840 -0.325195 -0.502333 0
M  V30 3 C 3.861929 0.553648 -0.437299 0
M  V30 4 C 2.844414 0.349523 0.497821 0
M  V30 5 C 1.704890 1.301366 0.528951 0 CFG=1
M  V30 6 C 1.602322 2.001967 -0.820663 0
M  V30 7 N 0.445845 0.682800 0.801021 0
M  V30 8 Pt -0.124605 -0.711685 -0.562791 0 CFG=1 VAL=4
M  V30 9 N -0.854018 -2.058392 -1.906948 0
M  V30 10 C -1.101080 -3.272636 -1.553102 0
M  V30 11 O -0.842866 -4.475186 -1.297422 0
M  V30 12 C -1.617070 0.729901 -1.292170 0
M  V30 13 C -1.931120 1.649729 -2.237593 0
M  V30 14 C -3.176205 2.198416 -2.117126 0
M  V30 15 C -4.037288 1.839808 -1.110871 0
M  V30 16 C -3.764976 0.915708 -0.130686 0
M  V30 17 C -2.487171 0.320224 -0.212410 0
M  V30 18 C -2.223628 -0.643055 0.947969 0 CFG=1
M  V30 19 C -3.473864 -1.101516 1.604161 0
M  V30 20 N -1.218262 -1.672540 0.957008 0
M  V30 21 C 2.974798 -0.739441 1.327748 0
M  V30 22 C 4.036922 -1.616551 1.280454 0
M  V30 23 H 5.885042 -2.075627 0.286128 0
M  V30 24 H 5.739882 -0.181427 -1.217562 0
M  V30 25 H 3.870270 1.366740 -1.137636 0
M  V30 26 H 1.908936 2.044233 1.315133 0
M  V30 27 H 2.366260 2.782916 -0.879407 0
M  V30 28 H 0.560434 2.412770 -0.916079 0
M  V30 29 H 1.704576 1.226932 -1.625430 0
M  V30 30 H 0.405445 0.262334 1.754135 0
M  V30 31 H -0.262889 1.474063 0.830955 0
M  V30 32 H -0.989560 1.572185 -2.751295 0
M  V30 33 H -3.224434 2.882135 -2.944027 0
M  V30 34 H -4.973109 2.370144 -1.172514 0
M  V30 35 H -4.523251 0.725619 0.603114 0
M  V30 36 H -1.784477 0.121253 1.712409 0
M  V30 37 H -3.339674 -2.072783 2.088899 0
M  V30 38 H -3.839678 -0.399221 2.414770 0
M  V30 39 H -4.315897 -1.267064 0.869957 0
M  V30 40 H -1.459679 -2.650845 0.792836 0
M  V30 41 H -0.660514 -1.730199 1.868453 0
M  V30 42 H 2.186747 -0.905449 2.057035 0
M  V30 43 H 4.125613 -2.468340 1.936671 0
M  V30 END ATOM
M  V30 BEGIN BOND
M  V30 1 2 1 2
M  V30 2 1 2 3
M  V30 3 2 3 4
M  V30 4 1 4 5
M  V30 5 1 5 6
M  V30 6 1 5 7
M  V30 7 9 7 8
M  V30 8 1 8 9
M  V30 9 2 9 10
M  V30 10 2 10 11
M  V30 11 1 8 12
M  V30 12 2 12 13
M  V30 13 1 13 14
M  V30 14 2 14 15
M  V30 15 1 15 16
M  V30 16 2 16 17
M  V30 17 1 17 18
M  V30 18 1 18 19
M  V30 19 1 18 20
M  V30 20 1 4 21
M  V30 21 2 21 22
M  V30 22 1 22 1
M  V30 23 9 20 8
M  V30 24 1 17 12
M  V30 25 1 1 23
M  V30 26 1 2 24
M  V30 27 1 3 25
M  V30 28 1 5 26 CFG=1
M  V30 29 1 6 27
M  V30 30 1 6 28
M  V30 31 1 6 29
M  V30 32 1 7 30
M  V30 33 1 7 31
M  V30 34 1 13 32
M  V30 35 1 14 33
M  V30 36 1 15 34
M  V30 37 1 16 35
M  V30 38 1 18 36 CFG=1
M  V30 39 1 19 37
M  V30 40 1 19 38
M  V30 41 1 19 39
M  V30 42 1 20 40
M  V30 43 1 20 41
M  V30 44 1 21 42
M  V30 45 1 22 43
M  V30 END BOND
M  V30 END CTAB
M  END
