
 OpenBabel09252519573D

 43 45  0  0  1  0  0  0  0  0999 V2000
    1.0397   -0.0778   -0.0487 H   0  0  0  0  0  0  0  0  0  0  0  0
    2.1097   -0.0778   -0.0487 C   0  0  0  0  0  3  0  0  0  0  0  0
    2.6220   -1.4608   -0.4578 C   0  0  0  0  0  3  0  0  0  0  0  0
    2.2328   -2.1982    0.2128 H   0  0  0  0  0  0  0  0  0  0  0  0
    2.1917   -1.7529   -1.7890 C   0  0  0  0  0  3  0  0  0  0  0  0
    2.5320   -2.7347   -2.0444 H   0  0  0  0  0  0  0  0  0  0  0  0
    2.6791   -0.8389   -2.7730 C   0  0  0  0  0  3  0  0  0  0  0  0
    4.1991   -0.8424   -2.7593 C   0  0  1  0  0  0  0  0  0  0  0  0
    4.5477   -0.5448   -1.7924 H   0  0  0  0  0  0  0  0  0  0  0  0
    4.7054   -2.2411   -3.0721 C   0  0  0  0  0  0  0  0  0  0  0  0
    4.3567   -2.5387   -4.0389 H   0  0  0  0  0  0  0  0  0  0  0  0
    5.7753   -2.2435   -3.0624 H   0  0  0  0  0  0  0  0  0  0  0  0
    4.3404   -2.9256   -2.3351 H   0  0  0  0  0  0  0  0  0  0  0  0
    4.7004    0.0980   -3.7718 N   0  0  0  0  0  4  0  0  0  0  0  0
    4.3681   -0.1857   -4.6934 H   0  0  0  0  0  0  0  0  0  0  0  0
    4.3607    1.0366   -3.5619 H   0  0  0  0  0  0  0  0  0  0  0  0
    6.7703    0.0932   -3.7530 Pt  0  0  0  0  0  0  0  0  0  0  0  0
    6.7896    0.4635   -5.7895 N   0  0  0  0  0  0  0  0  0  0  0  0
    5.6564    0.5839   -6.4470 C   0  0  0  0  0  0  0  0  0  0  0  0
    4.5618    0.7001   -7.0822 O   0  0  0  0  0  0  0  0  0  0  0  0
    8.8903    0.0883   -3.7338 C   0  0  0  0  0  3  0  0  0  0  0  0
    9.4061   -1.1578   -4.4573 C   0  0  0  0  0  3  0  0  0  0  0  0
    9.0108   -2.0333   -3.9859 H   0  0  0  0  0  0  0  0  0  0  0  0
    8.9879   -1.1222   -5.8234 C   0  0  0  0  0  3  0  0  0  0  0  0
    9.3304   -2.0152   -6.3032 H   0  0  0  0  0  0  0  0  0  0  0  0
    9.4843   -0.0005   -6.5561 C   0  0  0  0  0  3  0  0  0  0  0  0
   10.5541   -0.0077   -6.5379 H   0  0  0  0  0  0  0  0  0  0  0  0
    8.9716    1.2925   -5.9175 C   0  0  0  0  0  3  0  0  0  0  0  0
    9.3764    2.1344   -6.4391 H   0  0  0  0  0  0  0  0  0  0  0  0
    9.4122    1.3377   -4.4510 C   0  0  0  0  0  3  0  0  0  0  0  0
   10.9300    1.3714   -4.3759 C   0  0  1  0  0  0  0  0  0  0  0  0
   11.2358    1.4030   -3.3510 H   0  0  0  0  0  0  0  0  0  0  0  0
   11.4456    2.6063   -5.0967 C   0  0  0  0  0  0  0  0  0  0  0  0
   12.4701    2.4600   -4.8250 H   0  0  0  0  0  0  0  0  0  0  0  0
   11.3488    2.5597   -6.1613 H   0  0  0  0  0  0  0  0  0  0  0  0
   11.1181    3.5643   -4.7504 H   0  0  0  0  0  0  0  0  0  0  0  0
    6.7510   -0.2771   -1.7165 N   0  0  0  0  0  4  0  0  0  0  0  0
    5.9151    0.1365   -1.3036 H   0  0  0  0  0  0  0  0  0  0  0  0
    6.7479   -1.2841   -1.5541 H   0  0  0  0  0  0  0  0  0  0  0  0
    2.1692    0.5692   -2.4575 C   0  0  0  0  0  3  0  0  0  0  0  0
    2.5675    1.2621   -3.1690 H   0  0  0  0  0  0  0  0  0  0  0  0
    2.6225    0.9638   -1.0485 C   0  0  0  0  0  3  0  0  0  0  0  0
    3.6913    0.9996   -1.0125 H   0  0  0  0  0  0  0  0  0  0  0  0
  1  2  1  0  0  0  0
  2  3  1  0  0  0  0
  2 42  1  0  0  0  0
  3  4  1  0  0  0  0
  3  5  1  0  0  0  0
  5  6  1  0  0  0  0
  5  7  1  0  0  0  0
  7  8  1  0  0  0  0
  7 40  1  0  0  0  0
  8  9  1  1  0  0  0
  8 10  1  0  0  0  0
  8 14  1  0  0  0  0
 10 11  1  0  0  0  0
 10 12  1  0  0  0  0
 10 13  1  0  0  0  0
 14 15  1  0  0  0  0
 14 16  1  0  0  0  0
 14 17  1  0  0  0  0
 17 18  1  0  0  0  0
 17 21  1  0  0  0  0
 17 37  1  0  0  0  0
 18 19  2  0  0  0  0
 19 20  2  0  0  0  0
 21 22  1  0  0  0  0
 21 30  1  0  0  0  0
 22 23  1  0  0  0  0
 22 24  1  0  0  0  0
 24 25  1  0  0  0  0
 24 26  1  0  0  0  0
 26 27  1  0  0  0  0
 26 28  1  0  0  0  0
 28 29  1  0  0  0  0
 28 30  1  0  0  0  0
 30 31  1  0  0  0  0
 31 37  1  0  0  0  0
 31 33  1  0  0  0  0
 31 32  1  6  0  0  0
 33 34  1  0  0  0  0
 33 35  1  0  0  0  0
 33 36  1  0  0  0  0
 37 38  1  0  0  0  0
 37 39  1  0  0  0  0
 40 41  1  0  0  0  0
 40 42  1  0  0  0  0
 42 43  1  0  0  0  0
M  END
$$$$
