
     RDKit          3D

 28 28  0  0  0  0  0  0  0  0999 V2000
   -3.1088   -1.1873   -0.3123 C   0  0  0  0  0  0  0  0  0  0  0  0
   -2.6316    0.1281   -0.9168 C   0  0  0  0  0  0  0  0  0  0  0  0
   -1.8269    0.9689    0.0746 C   0  0  0  0  0  0  0  0  0  0  0  0
   -0.3890    0.6630    0.2020 C   0  0  0  0  0  0  0  0  0  0  0  0
    0.2937   -0.3032   -0.4371 C   0  0  0  0  0  0  0  0  0  0  0  0
    1.7319   -0.5442   -0.2392 C   0  0  0  0  0  0  0  0  0  0  0  0
    2.1921   -1.8677   -0.1686 C   0  0  0  0  0  0  0  0  0  0  0  0
    3.5534   -2.1371   -0.0086 C   0  0  0  0  0  0  0  0  0  0  0  0
    4.4557   -1.0838    0.0693 C   0  0  0  0  0  0  0  0  0  0  0  0
    5.7609   -1.3425    0.2206 F   0  0  0  0  0  0  0  0  0  0  0  0
    4.0234    0.2337   -0.0139 C   0  0  0  0  0  0  0  0  0  0  0  0
    2.6621    0.5044   -0.1736 C   0  0  0  0  0  0  0  0  0  0  0  0
   -2.4137    1.9681    0.7903 C   0  0  0  0  0  0  0  0  0  0  0  0
   -1.6877    2.7871    1.7062 C   0  0  0  0  0  0  0  0  0  0  0  0
   -1.0837    3.4485    2.4443 N   0  0  0  0  0  0  0  0  0  0  0  0
   -3.8081    2.2514    0.6781 C   0  0  0  0  0  0  0  0  0  0  0  0
   -4.9436    2.4694    0.5783 N   0  0  0  0  0  0  0  0  0  0  0  0
   -3.7561   -1.0122    0.5536 H   0  0  0  0  0  0  0  0  0  0  0  0
   -2.2724   -1.8144    0.0113 H   0  0  0  0  0  0  0  0  0  0  0  0
   -3.6843   -1.7528   -1.0523 H   0  0  0  0  0  0  0  0  0  0  0  0
   -3.5078    0.6767   -1.2820 H   0  0  0  0  0  0  0  0  0  0  0  0
   -2.0495   -0.0628   -1.8261 H   0  0  0  0  0  0  0  0  0  0  0  0
    0.1785    1.2767    0.9032 H   0  0  0  0  0  0  0  0  0  0  0  0
   -0.1841   -0.9907   -1.1285 H   0  0  0  0  0  0  0  0  0  0  0  0
    1.4940   -2.7000   -0.2280 H   0  0  0  0  0  0  0  0  0  0  0  0
    3.9136   -3.1589    0.0544 H   0  0  0  0  0  0  0  0  0  0  0  0
    4.7467    1.0411    0.0410 H   0  0  0  0  0  0  0  0  0  0  0  0
    2.3412    1.5403   -0.2556 H   0  0  0  0  0  0  0  0  0  0  0  0
  1  2  1  0
  2  3  1  0
  3  4  1  0
  4  5  2  3
  5  6  1  0
  6  7  2  0
  7  8  1  0
  8  9  2  0
  9 10  1  0
  9 11  1  0
 11 12  2  0
  3 13  2  3
 13 14  1  0
 14 15  3  0
 13 16  1  0
 16 17  3  0
 12  6  1  0
  1 18  1  0
  1 19  1  0
  1 20  1  0
  2 21  1  0
  2 22  1  0
  4 23  1  0
  5 24  1  0
  7 25  1  0
  8 26  1  0
 11 27  1  0
 12 28  1  0
M  END
