
  --CCDC--092525    3D                              

 46 54  0  0  0  0  0  0  0  0999 V2000
   -1.1634    1.0881    1.0658 Cl     0
    0.7832    2.2895    0.3350 Ir     0
   -0.7440    3.4412   -0.5464 C      0
   -0.5939    2.2963   -1.2144 C      0
   -0.9809    1.3323   -2.2739 C      0
   -1.8340    1.2664   -3.3471 C      0
   -1.8868    0.0691   -4.0536 C      0
   -1.1253   -1.0191   -3.7088 C      0
   -0.2365   -0.9709   -2.6042 C      0
    0.6080   -2.0099   -2.1579 C      0
    1.4309   -1.7885   -1.0918 C      0
    1.4598   -0.5735   -0.4163 C      0
    0.6244    0.4832   -0.7680 C      0
   -0.1919    0.2412   -1.8888 C      0
    2.6440    2.5544   -0.3071 C      0
    3.1807    3.3642   -1.4678 C      0
    2.5768    2.5522    1.1901 C      0
    3.6700    1.6476    1.7788 C      0
    1.2861    3.3660    1.9399 C      0
    0.5682    3.6872    3.2321 C      0
    1.7847    2.2319    2.0543 C      0
    1.2691    0.9331    2.6651 C      0
    2.3569    3.3038    0.8672 C      0
    2.4694    4.8289    0.9330 C      0
   -1.3188    4.3586   -0.4744 H      0
   -2.4470    2.1152   -3.6316 H      0
   -2.5536   -0.0070   -4.9060 H      0
   -1.2023   -1.9306   -4.2923 H      0
    0.6092   -2.9708   -2.6618 H      0
    2.0888   -2.5863   -0.7634 H      0
    2.1603   -0.4477    0.4021 H      0
    3.5265    2.7065   -2.2625 H      0
    4.0207    3.9835   -1.1629 H      0
    2.4083    4.0112   -1.8783 H      0
    3.8490    1.7564    2.8529 H      0
    4.6114    1.9153    1.3035 H      0
    3.5225    0.5896    1.5507 H      0
   -0.4876    3.4346    3.1598 H      0
    0.6479    4.7471    3.4644 H      0
    0.9951    3.1256    4.0603 H      0
    0.3393    1.1080    3.2021 H      0
    1.9876    0.5395    3.3812 H      0
    1.0913    0.1635    1.9251 H      0
    1.5767    5.3344    0.5603 H      0
    3.2892    5.1660    0.3046 H      0
    2.7045    5.2177    1.9266 H      0
  1  2  1
  2  3  1
  3  4  2
  2  4  1
  4  5  1
  5  6  4
  6  7  4
  7  8  4
  8  9  4
  9 10  4
 10 11  4
 11 12  4
 12 13  4
  2 13  1
 13 14  4
  5 14  4
  9 14  4
  2 15  1
 15 16  1
 15 17  4
  2 17  1
 17 18  1
 17 19  4
  2 19  1
 19 20  1
 19 21  4
  2 21  1
 21 22  1
 21 23  4
  2 23  1
 15 23  4
 23 24  1
  3 25  1
  6 26  1
  7 27  1
  8 28  1
 10 29  1
 11 30  1
 12 31  1
 16 32  1
 16 33  1
 16 34  1
 18 35  1
 18 36  1
 18 37  1
 20 38  1
 20 39  1
 20 40  1
 22 41  1
 22 42  1
 22 43  1
 24 44  1
 24 45  1
 24 46  1
M  END
$$$$
