
     RDKit          3D

 26 26  0  0  0  0  0  0  0  0999 V2000
   -3.3007    1.8376    0.3321 C   0  0  0  0  0  0  0  0  0  0  0  0
   -2.8070    0.4006    0.4471 C   0  0  0  0  0  0  0  0  0  0  0  0
   -3.5238   -0.4983   -0.5538 C   0  0  0  0  0  0  0  0  0  0  0  0
   -1.3958    0.4133    0.1588 O   0  0  0  0  0  0  0  0  0  0  0  0
   -0.6707   -0.6042    0.6838 C   0  0  0  0  0  0  0  0  0  0  0  0
   -1.1006   -1.5168    1.3703 O   0  0  0  0  0  0  0  0  0  0  0  0
    0.7641   -0.4704    0.3071 C   0  0  0  0  0  0  0  0  0  0  0  0
    1.6622   -1.4462    0.7676 C   0  0  0  0  0  0  0  0  0  0  0  0
    3.0211   -1.3712    0.4445 C   0  0  0  0  0  0  0  0  0  0  0  0
    3.4848   -0.3113   -0.3455 C   0  0  0  0  0  0  0  0  0  0  0  0
    2.5983    0.6693   -0.8115 C   0  0  0  0  0  0  0  0  0  0  0  0
    1.2400    0.5870   -0.4838 C   0  0  0  0  0  0  0  0  0  0  0  0
    4.9107   -0.2268   -0.6883 N   0  0  0  0  0  0  0  0  0  0  0  0
    5.6606   -1.1135   -0.2565 O   0  0  0  0  0  0  0  0  0  0  0  0
    5.2783    0.7267   -1.3891 O   0  0  0  0  0  0  0  0  0  0  0  0
   -3.1076    2.2416   -0.6680 H   0  0  0  0  0  0  0  0  0  0  0  0
   -2.7660    2.4811    1.0392 H   0  0  0  0  0  0  0  0  0  0  0  0
   -4.3729    1.9081    0.5388 H   0  0  0  0  0  0  0  0  0  0  0  0
   -2.9864    0.0525    1.4717 H   0  0  0  0  0  0  0  0  0  0  0  0
   -3.1725   -1.5320   -0.4714 H   0  0  0  0  0  0  0  0  0  0  0  0
   -3.3203   -0.1794   -1.5821 H   0  0  0  0  0  0  0  0  0  0  0  0
   -4.6058   -0.4889   -0.3906 H   0  0  0  0  0  0  0  0  0  0  0  0
    1.3046   -2.2720    1.3823 H   0  0  0  0  0  0  0  0  0  0  0  0
    3.6964   -2.1408    0.8144 H   0  0  0  0  0  0  0  0  0  0  0  0
    2.9448    1.4983   -1.4262 H   0  0  0  0  0  0  0  0  0  0  0  0
    0.5642    1.3559   -0.8531 H   0  0  0  0  0  0  0  0  0  0  0  0
  1  2  1  0
  2  3  1  0
  2  4  1  0
  4  5  1  0
  5  6  2  0
  5  7  1  0
  7  8  2  0
  8  9  1  0
  9 10  2  0
 10 11  1  0
 11 12  2  0
 10 13  1  0
 13 14  1  0
 13 15  2  0
 12  7  1  0
  1 16  1  0
  1 17  1  0
  1 18  1  0
  2 19  1  0
  3 20  1  0
  3 21  1  0
  3 22  1  0
  8 23  1  0
  9 24  1  0
 11 25  1  0
 12 26  1  0
M  CHG  2  13   1  14  -1
M  END
