
 OpenBabel09252513043D

 45 50  0  0  1  0  0  0  0  0999 V2000
    1.0381   -0.0548   -0.0745 H   0  0  0  0  0  0  0  0  0  0  0  0
    2.1081   -0.0548   -0.0745 C   0  0  0  0  0  0  0  0  0  0  0  0
    2.4648    0.1045   -1.0706 H   0  0  0  0  0  0  0  0  0  0  0  0
    2.4648    0.7283    0.5616 H   0  0  0  0  0  0  0  0  0  0  0  0
    2.7315   -1.7017    0.5549 Si  0  0  0  0  0  0  0  0  0  0  0  0
    2.1081   -1.9801    2.2958 C   0  0  0  0  0  0  0  0  0  0  0  0
    1.3260   -3.0578    2.5740 C   0  0  0  0  0  0  0  0  0  0  0  0
    0.2197   -4.5823    2.9676 Cr  0  0  0  0  0  0  0  0  0  0  0  0
    0.4512   -3.4135    4.7572 C   0  0  0  0  0  0  0  0  0  0  0  0
    0.5823   -2.7513    5.7711 O   0  0  0  0  0  0  0  0  0  0  0  0
   -1.3444   -4.7840    1.5063 C   0  0  0  0  0  0  0  0  0  0  0  0
   -2.2305   -4.8983    0.6784 O   0  0  0  0  0  0  0  0  0  0  0  0
    0.9479   -4.6663   -0.0535 C   0  0  2  0  0  0  0  0  0  0  0  0
    1.1611   -5.2338   -0.9352 H   0  0  0  0  0  0  0  0  0  0  0  0
    2.0862   -3.7286    0.2840 C   0  0  1  0  0  0  0  0  0  0  0  0
    2.6839   -3.3364   -0.5121 H   0  0  0  0  0  0  0  0  0  0  0  0
    2.2927   -3.5681    1.7756 C   0  0  1  0  0  0  0  0  0  0  0  0
    3.3439   -3.3694    1.7987 H   0  0  0  0  0  0  0  0  0  0  0  0
    0.9851   -3.3289    2.5162 C   0  0  1  0  0  0  0  0  0  0  0  0
    1.3649   -2.4376    2.9706 H   0  0  0  0  0  0  0  0  0  0  0  0
   -0.3453   -3.6846    1.8744 C   0  0  1  0  0  0  0  0  0  0  0  0
   -1.2728   -3.1716    1.7277 H   0  0  0  0  0  0  0  0  0  0  0  0
   -0.3930   -4.1645    0.4388 C   0  0  2  0  0  0  0  0  0  0  0  0
   -1.0195   -4.0702   -0.4234 H   0  0  0  0  0  0  0  0  0  0  0  0
    2.5599   -0.7770    3.6543 Si  0  0  0  0  0  0  0  0  0  0  0  0
    4.4194   -0.7205    3.8439 C   0  0  0  0  0  0  0  0  0  0  0  0
    4.8622   -0.4018    2.9234 H   0  0  0  0  0  0  0  0  0  0  0  0
    4.6779   -0.0321    4.6212 H   0  0  0  0  0  0  0  0  0  0  0  0
    4.7821   -1.6952    4.0955 H   0  0  0  0  0  0  0  0  0  0  0  0
    1.9261    0.9264    3.2145 C   0  0  0  0  0  0  0  0  0  0  0  0
    0.8621    0.8941    3.1060 H   0  0  0  0  0  0  0  0  0  0  0  0
    2.1845    1.6148    3.9918 H   0  0  0  0  0  0  0  0  0  0  0  0
    2.3689    1.2451    2.2941 H   0  0  0  0  0  0  0  0  0  0  0  0
    1.7860   -1.3340    5.2629 C   0  0  0  0  0  0  0  0  0  0  0  0
    0.7220   -1.3663    5.1544 H   0  0  0  0  0  0  0  0  0  0  0  0
    2.1486   -2.3087    5.5146 H   0  0  0  0  0  0  0  0  0  0  0  0
    2.0444   -0.6456    6.0402 H   0  0  0  0  0  0  0  0  0  0  0  0
    2.1081   -3.0702   -0.5567 C   0  0  0  0  0  0  0  0  0  0  0  0
    2.4648   -2.9109   -1.5528 H   0  0  0  0  0  0  0  0  0  0  0  0
    2.4648   -4.0125   -0.1966 H   0  0  0  0  0  0  0  0  0  0  0  0
    1.0381   -3.0701   -0.5567 H   0  0  0  0  0  0  0  0  0  0  0  0
    4.6015   -1.7017    0.5549 C   0  0  0  0  0  0  0  0  0  0  0  0
    4.9581   -1.5424   -0.4413 H   0  0  0  0  0  0  0  0  0  0  0  0
    4.9581   -0.9186    1.1909 H   0  0  0  0  0  0  0  0  0  0  0  0
    4.9581   -2.6440    0.9150 H   0  0  0  0  0  0  0  0  0  0  0  0
  1  2  1  0  0  0  0
  2  3  1  0  0  0  0
  2  4  1  0  0  0  0
  2  5  1  0  0  0  0
  5  6  1  0  0  0  0
  5 38  1  0  0  0  0
  5 42  1  0  0  0  0
  6  7  2  0  0  0  0
  6 25  1  0  0  0  0
  7  8  2  0  0  0  0
  8  9  1  0  0  0  0
  8 11  1  0  0  0  0
  8 13  1  0  0  0  0
  8 15  1  0  0  0  0
  8 17  1  0  0  0  0
  8 19  1  0  0  0  0
  8 21  1  0  0  0  0
  8 23  1  0  0  0  0
  9 10  3  0  0  0  0
 11 12  3  0  0  0  0
 13 14  1  6  0  0  0
 13 15  1  0  0  0  0
 13 23  1  0  0  0  0
 15 16  1  1  0  0  0
 15 17  1  0  0  0  0
 17 18  1  1  0  0  0
 17 19  1  0  0  0  0
 19 20  1  1  0  0  0
 19 21  1  0  0  0  0
 21 22  1  1  0  0  0
 21 23  1  0  0  0  0
 23 24  1  6  0  0  0
 25 26  1  0  0  0  0
 25 30  1  0  0  0  0
 25 34  1  0  0  0  0
 26 27  1  0  0  0  0
 26 28  1  0  0  0  0
 26 29  1  0  0  0  0
 30 31  1  0  0  0  0
 30 32  1  0  0  0  0
 30 33  1  0  0  0  0
 34 35  1  0  0  0  0
 34 36  1  0  0  0  0
 34 37  1  0  0  0  0
 38 39  1  0  0  0  0
 38 40  1  0  0  0  0
 38 41  1  0  0  0  0
 42 43  1  0  0  0  0
 42 44  1  0  0  0  0
 42 45  1  0  0  0  0
M  END
$$$$
