
     RDKit          3D

 57 60  0  0  0  0  0  0  0  0999 V2000
   -4.6110   -1.9004    2.6357 C   0  0  0  0  0  0  0  0  0  0  0  0
   -3.3779   -1.3365    2.9570 C   0  0  0  0  0  0  0  0  0  0  0  0
   -2.6994   -0.5495    2.0221 C   0  0  0  0  0  0  0  0  0  0  0  0
   -3.2414   -0.3408    0.7469 C   0  0  0  0  0  0  0  0  0  0  0  0
   -2.6327    0.5129   -0.2660 N   0  0  0  0  0  0  0  0  0  0  0  0
   -1.1808    0.6360   -0.1883 C   0  0  0  0  0  0  0  0  0  0  0  0
   -0.4300   -0.2859   -0.8299 C   0  0  0  0  0  0  0  0  0  0  0  0
    0.9970   -0.1839   -0.8801 C   0  0  0  0  0  0  0  0  0  0  0  0
    2.1945   -0.0929   -0.9341 C   0  0  0  0  0  0  0  0  0  0  0  0
    3.6214    0.0317   -0.9994 C   0  0  0  0  0  0  0  0  0  0  0  0
    4.2322    0.0374   -2.2594 C   0  0  0  0  0  0  0  0  0  0  0  0
    5.6157    0.1644   -2.3685 C   0  0  0  0  0  0  0  0  0  0  0  0
    6.3910    0.2870   -1.2187 C   0  0  0  0  0  0  0  0  0  0  0  0
    5.7876    0.2808    0.0436 C   0  0  0  0  0  0  0  0  0  0  0  0
    4.3994    0.1508    0.1669 C   0  0  0  0  0  0  0  0  0  0  0  0
    3.7217    0.1417    1.3614 O   0  0  0  0  0  0  0  0  0  0  0  0
    4.4965    0.1237    2.5526 C   0  0  0  0  0  0  0  0  0  0  0  0
   -1.0183   -1.7817   -1.8482 Si  0  0  0  0  0  4  0  0  0  0  0  0
    0.3705   -2.3995   -2.9903 C   0  0  0  0  0  0  0  0  0  0  0  0
   -1.4715   -3.2079   -0.7137 C   0  0  0  0  0  0  0  0  0  0  0  0
   -2.4603   -1.3340   -2.9667 C   0  0  0  0  0  0  0  0  0  0  0  0
   -0.7544    1.8793    0.4963 C   0  0  0  0  0  0  0  0  0  0  0  0
    0.4404    2.2058    1.1269 C   0  0  0  0  0  0  0  0  0  0  0  0
    0.5698    3.4485    1.7658 C   0  0  0  0  0  0  0  0  0  0  0  0
   -0.4979    4.3568    1.7992 C   0  0  0  0  0  0  0  0  0  0  0  0
   -1.7092    4.0313    1.1974 C   0  0  0  0  0  0  0  0  0  0  0  0
   -1.7937    2.8026    0.5599 C   0  0  0  0  0  0  0  0  0  0  0  0
   -3.2291    2.1594   -0.1980 S   0  0  0  0  0  6  0  0  0  0  0  0
   -3.2706    2.7006   -1.5402 O   0  0  0  0  0  0  0  0  0  0  0  0
   -4.3274    2.2971    0.7333 O   0  0  0  0  0  0  0  0  0  0  0  0
   -4.4961   -0.8875    0.4474 C   0  0  0  0  0  0  0  0  0  0  0  0
   -5.1736   -1.6720    1.3826 C   0  0  0  0  0  0  0  0  0  0  0  0
   -5.1394   -2.5058    3.3674 H   0  0  0  0  0  0  0  0  0  0  0  0
   -2.9466   -1.5008    3.9411 H   0  0  0  0  0  0  0  0  0  0  0  0
   -1.7495   -0.1145    2.3156 H   0  0  0  0  0  0  0  0  0  0  0  0
    3.6308   -0.0540   -3.1603 H   0  0  0  0  0  0  0  0  0  0  0  0
    6.0863    0.1718   -3.3482 H   0  0  0  0  0  0  0  0  0  0  0  0
    7.4702    0.3905   -1.3030 H   0  0  0  0  0  0  0  0  0  0  0  0
    6.4316    0.3859    0.9107 H   0  0  0  0  0  0  0  0  0  0  0  0
    3.8060    0.0449    3.3981 H   0  0  0  0  0  0  0  0  0  0  0  0
    5.1598   -0.7475    2.5835 H   0  0  0  0  0  0  0  0  0  0  0  0
    5.0589    1.0558    2.6694 H   0  0  0  0  0  0  0  0  0  0  0  0
    0.0051   -3.2279   -3.6042 H   0  0  0  0  0  0  0  0  0  0  0  0
    0.7058   -1.5983   -3.6554 H   0  0  0  0  0  0  0  0  0  0  0  0
    1.2229   -2.7574   -2.4058 H   0  0  0  0  0  0  0  0  0  0  0  0
   -2.3587   -2.9846   -0.1183 H   0  0  0  0  0  0  0  0  0  0  0  0
   -1.6800   -4.1081   -1.3004 H   0  0  0  0  0  0  0  0  0  0  0  0
   -0.6474   -3.4328   -0.0302 H   0  0  0  0  0  0  0  0  0  0  0  0
   -3.3596   -1.0941   -2.3977 H   0  0  0  0  0  0  0  0  0  0  0  0
   -2.2083   -0.4709   -3.5896 H   0  0  0  0  0  0  0  0  0  0  0  0
   -2.6992   -2.1714   -3.6290 H   0  0  0  0  0  0  0  0  0  0  0  0
    1.2764    1.5147    1.1606 H   0  0  0  0  0  0  0  0  0  0  0  0
    1.5092    3.7041    2.2520 H   0  0  0  0  0  0  0  0  0  0  0  0
   -0.3807    5.3116    2.3070 H   0  0  0  0  0  0  0  0  0  0  0  0
   -2.5571    4.7083    1.2288 H   0  0  0  0  0  0  0  0  0  0  0  0
   -4.9547   -0.7011   -0.5205 H   0  0  0  0  0  0  0  0  0  0  0  0
   -6.1443   -2.0938    1.1349 H   0  0  0  0  0  0  0  0  0  0  0  0
  1  2  2  0
  2  3  1  0
  3  4  2  0
  4  5  1  0
  5  6  1  0
  6  7  2  0
  7  8  1  0
  8  9  3  0
  9 10  1  0
 10 11  2  0
 11 12  1  0
 12 13  2  0
 13 14  1  0
 14 15  2  0
 15 16  1  0
 16 17  1  0
  7 18  1  0
 18 19  1  0
 18 20  1  0
 18 21  1  0
  6 22  1  0
 22 23  2  0
 23 24  1  0
 24 25  2  0
 25 26  1  0
 26 27  2  0
 27 28  1  0
 28 29  2  0
 28 30  2  0
  4 31  1  0
 31 32  2  0
 32  1  1  0
 28  5  1  0
 15 10  1  0
 27 22  1  0
  1 33  1  0
  2 34  1  0
  3 35  1  0
 11 36  1  0
 12 37  1  0
 13 38  1  0
 14 39  1  0
 17 40  1  0
 17 41  1  0
 17 42  1  0
 19 43  1  0
 19 44  1  0
 19 45  1  0
 20 46  1  0
 20 47  1  0
 20 48  1  0
 21 49  1  0
 21 50  1  0
 21 51  1  0
 23 52  1  0
 24 53  1  0
 25 54  1  0
 26 55  1  0
 31 56  1  0
 32 57  1  0
M  END
