
 OpenBabel09252515473D

 57 60  0  0  0  0  0  0  0  0999 V2000
    1.2981    0.0215    1.5217 H   0  0  0  0  0  0  0  0  0  0  0  0
    1.8699    0.0028    0.6015 C   0  0  0  0  0  3  0  0  0  0  0  0
    1.9157   -1.2152   -0.1925 C   0  0  0  0  0  3  0  0  0  0  0  0
    1.4541   -2.1171    0.1930 H   0  0  0  0  0  0  0  0  0  0  0  0
    2.8364   -1.3139   -1.3171 C   0  0  0  0  0  3  0  0  0  0  0  0
    3.0434   -2.2926   -1.7349 H   0  0  0  0  0  0  0  0  0  0  0  0
    3.7212   -0.1965   -1.6503 C   0  0  0  0  0  3  0  0  0  0  0  0
    4.7640   -0.4710   -2.5561 N   0  0  0  0  0  0  0  0  0  0  0  0
    4.7793   -0.1916   -3.9796 C   0  0  0  0  0  0  0  0  0  0  0  0
    4.1532    0.9263   -4.4176 C   0  0  0  0  0  0  0  0  0  0  0  0
    4.9240    1.8188   -5.3766 C   0  0  0  0  0  0  0  0  0  0  0  0
    5.5852    2.5844   -6.1993 C   0  0  0  0  0  0  0  0  0  0  0  0
    6.3559    3.4770   -7.1583 C   0  0  0  0  0  3  0  0  0  0  0  0
    5.6495    3.5935   -8.4547 C   0  0  0  0  0  3  0  0  0  0  0  0
    5.4264    2.6911   -9.0114 H   0  0  0  0  0  0  0  0  0  0  0  0
    4.8900    4.8116   -8.7369 C   0  0  0  0  0  3  0  0  0  0  0  0
    4.1280    4.8038   -9.5068 H   0  0  0  0  0  0  0  0  0  0  0  0
    4.9926    5.9538   -7.8360 C   0  0  0  0  0  3  0  0  0  0  0  0
    4.3357    6.8062   -7.9568 H   0  0  0  0  0  0  0  0  0  0  0  0
    5.9686    5.9356   -6.7544 C   0  0  0  0  0  3  0  0  0  0  0  0
    6.1694    6.8297   -6.1789 H   0  0  0  0  0  0  0  0  0  0  0  0
    6.8160    4.7575   -6.5820 C   0  0  0  0  0  3  0  0  0  0  0  0
    8.1537    5.0705   -6.4744 O   0  0  0  0  0  0  0  0  0  0  0  0
    9.0803    4.1260   -6.9964 C   0  0  0  0  0  0  0  0  0  0  0  0
    9.1617    3.2636   -6.3293 H   0  0  0  0  0  0  0  0  0  0  0  0
    8.8219    3.8130   -8.0143 H   0  0  0  0  0  0  0  0  0  0  0  0
   10.0581    4.6149   -7.0506 H   0  0  0  0  0  0  0  0  0  0  0  0
    2.2793    1.1017   -4.6841 Si  0  0  0  0  0  0  0  0  0  0  0  0
    1.5648   -0.6028   -5.0865 C   0  0  0  0  0  0  0  0  0  0  0  0
    1.7396   -1.3054   -4.2678 H   0  0  0  0  0  0  0  0  0  0  0  0
    0.4864   -0.5303   -5.2562 H   0  0  0  0  0  0  0  0  0  0  0  0
    2.0282   -1.0033   -5.9935 H   0  0  0  0  0  0  0  0  0  0  0  0
    1.3496    1.8065   -3.2247 C   0  0  0  0  0  0  0  0  0  0  0  0
    1.8851    2.6505   -2.7819 H   0  0  0  0  0  0  0  0  0  0  0  0
    0.3659    2.1657   -3.5447 H   0  0  0  0  0  0  0  0  0  0  0  0
    1.1771    1.0502   -2.4569 H   0  0  0  0  0  0  0  0  0  0  0  0
    1.9258    2.2271   -6.1712 C   0  0  0  0  0  0  0  0  0  0  0  0
    2.2950    3.2400   -5.9845 H   0  0  0  0  0  0  0  0  0  0  0  0
    2.4037    1.8379   -7.0751 H   0  0  0  0  0  0  0  0  0  0  0  0
    0.8480    2.2834   -6.3511 H   0  0  0  0  0  0  0  0  0  0  0  0
    6.0881   -0.5948   -4.5179 C   0  0  0  0  0  3  0  0  0  0  0  0
    6.4344   -1.0146   -5.8748 C   0  0  0  0  0  3  0  0  0  0  0  0
    5.6596   -1.3241   -6.5658 H   0  0  0  0  0  0  0  0  0  0  0  0
    7.8408   -1.1206   -6.2457 C   0  0  0  0  0  3  0  0  0  0  0  0
    8.1132   -1.4946   -7.2255 H   0  0  0  0  0  0  0  0  0  0  0  0
    8.8825   -0.7483   -5.2890 C   0  0  0  0  0  3  0  0  0  0  0  0
    9.8543   -0.4455   -5.6618 H   0  0  0  0  0  0  0  0  0  0  0  0
    8.5360   -0.5129   -3.8861 C   0  0  0  0  0  3  0  0  0  0  0  0
    9.2241    0.0185   -3.2392 H   0  0  0  0  0  0  0  0  0  0  0  0
    7.1402   -0.6156   -3.5142 C   0  0  0  0  0  3  0  0  0  0  0  0
    6.4013   -0.3721   -1.9722 S   0  0  0  0  0  0  0  0  0  0  0  0
    6.6810    0.9837   -1.5284 O   0  0  0  0  0  0  0  0  0  0  0  0
    6.6554   -1.5113   -1.1196 O   0  0  0  0  0  0  0  0  0  0  0  0
    3.6860    1.0096   -0.8313 C   0  0  0  0  0  3  0  0  0  0  0  0
    4.3156    1.8574   -1.0718 H   0  0  0  0  0  0  0  0  0  0  0  0
    2.7481    1.1158    0.2775 C   0  0  0  0  0  3  0  0  0  0  0  0
    2.7521    2.0013    0.9008 H   0  0  0  0  0  0  0  0  0  0  0  0
  1  2  1  0  0  0  0
  2  3  1  0  0  0  0
  2 56  1  0  0  0  0
  3  4  1  0  0  0  0
  3  5  1  0  0  0  0
  5  6  1  0  0  0  0
  5  7  1  0  0  0  0
  7  8  1  0  0  0  0
  7 54  1  0  0  0  0
  8  9  1  0  0  0  0
  8 51  1  0  0  0  0
  9 10  2  0  0  0  0
  9 41  1  0  0  0  0
 10 11  1  0  0  0  0
 10 28  1  0  0  0  0
 11 12  3  0  0  0  0
 12 13  1  0  0  0  0
 13 14  1  0  0  0  0
 13 22  1  0  0  0  0
 14 15  1  0  0  0  0
 14 16  1  0  0  0  0
 16 17  1  0  0  0  0
 16 18  1  0  0  0  0
 18 19  1  0  0  0  0
 18 20  1  0  0  0  0
 20 21  1  0  0  0  0
 20 22  1  0  0  0  0
 22 23  1  0  0  0  0
 23 24  1  0  0  0  0
 24 25  1  0  0  0  0
 24 26  1  0  0  0  0
 24 27  1  0  0  0  0
 28 29  1  0  0  0  0
 28 33  1  0  0  0  0
 28 37  1  0  0  0  0
 29 30  1  0  0  0  0
 29 31  1  0  0  0  0
 29 32  1  0  0  0  0
 33 34  1  0  0  0  0
 33 35  1  0  0  0  0
 33 36  1  0  0  0  0
 37 38  1  0  0  0  0
 37 39  1  0  0  0  0
 37 40  1  0  0  0  0
 41 42  1  0  0  0  0
 41 50  1  0  0  0  0
 42 43  1  0  0  0  0
 42 44  1  0  0  0  0
 44 45  1  0  0  0  0
 44 46  1  0  0  0  0
 46 47  1  0  0  0  0
 46 48  1  0  0  0  0
 48 49  1  0  0  0  0
 48 50  1  0  0  0  0
 50 51  1  0  0  0  0
 51 52  2  0  0  0  0
 51 53  2  0  0  0  0
 54 55  1  0  0  0  0
 54 56  1  0  0  0  0
 56 57  1  0  0  0  0
M  END
$$$$
