
  --CCDC--092525    3D                              

109117  0  0  0  0  0  0  0  0999 V2000
    1.1983   -3.2671    1.7362 C      0
    2.3628   -2.6926    1.0651 C      0
    3.2682   -2.2059    0.5590 N      0
    5.0513   -1.2339   -0.2970 Fe     2
    5.8024   -2.0868    1.5823 N      0
    6.1916   -2.5288    2.5561 C      0
    6.7224   -3.0519    3.8021 C      0
    4.8985    0.8524    0.2943 N      0
    3.9370    1.6059   -0.2281 C      0
    2.8130    0.9338   -0.9697 C      0
    3.5355   -0.2578   -2.1274 P      0
    4.3894    0.6870   -3.4395 C      0
    4.8614    0.1372   -4.6362 C      0
    5.5254    0.9068   -5.5829 C      0
    5.7782    2.2524   -5.3760 C      0
    6.4414    3.1339   -6.4087 C      0
    5.3712    2.7864   -4.1722 C      0
    4.6734    2.0382   -3.2464 C      0
    2.1744   -1.2644   -2.7940 C      0
    1.9452   -1.4310   -4.1599 C      0
    0.9253   -2.2557   -4.6094 C      0
    0.1200   -2.9623   -3.7318 C      0
   -0.9187   -3.9378   -4.2334 C      0
    0.2974   -2.7351   -2.3791 C      0
    1.2755   -1.8704   -1.9243 C      0
    6.2128    1.0580    0.8183 C      0
    7.2876    0.7723   -0.2894 C      0
    6.9269   -0.4035   -1.0446 N      0
    7.5246   -1.1437   -1.9846 C      0
    6.6258   -2.0601   -2.7830 C      0
    6.0668   -3.2230   -1.5222 P      0
    4.7070   -4.4044   -1.6874 C      0
    3.6319   -4.3010   -2.5650 C      0
    2.5172   -5.1147   -2.3920 C      0
    2.4483   -6.0543   -1.3689 C      0
    1.2474   -6.9437   -1.1496 C      0
    3.5281   -6.1493   -0.5114 C      0
    4.6316   -5.3397   -0.6669 C      0
    7.5898   -4.0598   -0.9675 C      0
    8.5344   -4.3449   -1.9480 C      0
    9.6429   -5.1330   -1.6863 C      0
    9.8690   -5.6828   -0.4364 C      0
   11.0528   -6.5990   -0.2061 C      0
    8.9526   -5.3645    0.5581 C      0
    7.8386   -4.5681    0.3072 C      0
    7.6538    1.9535   -1.1657 C      0
    6.8104    3.0391   -1.3515 C      0
    7.1890    4.0939   -2.1660 C      0
    8.4177    4.0863   -2.7891 C      0
    9.2826    3.0344   -2.5824 C      0
    8.9015    1.9776   -1.7730 C      0
    6.4773    2.2288    1.7516 C      0
    5.8841    3.4857    1.6671 C      0
    6.0739    4.4223    2.6729 C      0
    6.8551    4.1224    3.7681 C      0
    7.4762    2.8974    3.8446 C      0
    7.3003    1.9701    2.8356 C      0
    0.3275   -2.6182    1.6189 H      0
    1.3807   -3.3931    2.8030 H      0
    0.9477   -4.2420    1.3189 H      0
    6.2125   -3.9781    4.0778 H      0
    7.7791   -3.2663    3.6846 H      0
    6.5999   -2.3370    4.6132 H      0
    3.9735    2.6877   -0.1915 H      0
    2.1402    0.4302   -0.2648 H      0
    2.2031    1.6617   -1.5152 H      0
    4.7208   -0.9197   -4.8319 H      0
    5.8613    0.4503   -6.5081 H      0
    7.4229    2.7581   -6.6859 H      0
    6.5636    4.1464   -6.0204 H      0
    5.8286    3.1930   -7.3054 H      0
    5.5909    3.8258   -3.9588 H      0
    4.3348    2.5490   -2.3595 H      0
    2.5546   -0.9046   -4.8848 H      0
    0.7526   -2.3612   -5.6753 H      0
   -1.0344   -3.8550   -5.3117 H      0
   -1.8859   -3.7503   -3.7709 H      0
   -0.6265   -4.9607   -4.0029 H      0
   -0.3434   -3.2420   -1.6649 H      0
    1.3284   -1.6397   -0.8711 H      0
    6.3423    0.2100    1.5000 H      0
    8.2113    0.5186    0.2499 H      0
    8.5947   -1.1250   -2.1304 H      0
    5.7742   -1.5157   -3.1915 H      0
    7.1509   -2.5483   -3.6121 H      0
    3.6478   -3.5666   -3.3648 H      0
    1.6742   -5.0081   -3.0681 H      0
    1.5125   -7.9887   -1.3049 H      0
    0.4377   -6.6926   -1.8311 H      0
    0.8780   -6.8441   -0.1315 H      0
    3.5040   -6.8614    0.3076 H      0
    5.4410   -5.4096    0.0499 H      0
    8.3888   -3.9505   -2.9486 H      0
   10.3456   -5.3410   -2.4867 H      0
   11.5144   -6.8763   -1.1512 H      0
   10.7496   -7.5157    0.2938 H      0
   11.8155   -6.1198    0.4054 H      0
    9.1032   -5.7661    1.5560 H      0
    7.1494   -4.3653    1.1157 H      0
    5.8412    3.0579   -0.8631 H      0
    6.5031    4.9172   -2.3365 H      0
    8.7009    4.9007   -3.4492 H      0
   10.2592    3.0308   -3.0570 H      0
    9.5893    1.1532   -1.6123 H      0
    5.2464    3.7458    0.8317 H      0
    5.5963    5.3952    2.6067 H      0
    6.9769    4.8446    4.5676 H      0
    8.0946    2.6528    4.7017 H      0
    7.7923    1.0060    2.9029 H      0
  1  2  1
  2  3  3
  3  4  1
  4  5  1
  5  6  3
  6  7  1
  4  8  1
  8  9  2
  9 10  1
 10 11  1
  4 11  1
 11 12  1
 12 13  4
 13 14  4
 14 15  4
 15 16  1
 15 17  4
 17 18  4
 12 18  4
 11 19  1
 19 20  4
 20 21  4
 21 22  4
 22 23  1
 22 24  4
 24 25  4
 19 25  4
  8 26  1
 26 27  1
 27 28  1
  4 28  1
 28 29  2
 29 30  1
 30 31  1
  4 31  1
 31 32  1
 32 33  4
 33 34  4
 34 35  4
 35 36  1
 35 37  4
 37 38  4
 32 38  4
 31 39  1
 39 40  4
 40 41  4
 41 42  4
 42 43  1
 42 44  4
 44 45  4
 39 45  4
 27 46  1
 46 47  4
 47 48  4
 48 49  4
 49 50  4
 50 51  4
 46 51  4
 26 52  1
 52 53  4
 53 54  4
 54 55  4
 55 56  4
 56 57  4
 52 57  4
  1 58  1
  1 59  1
  1 60  1
  7 61  1
  7 62  1
  7 63  1
  9 64  1
 10 65  1
 10 66  1
 13 67  1
 14 68  1
 16 69  1
 16 70  1
 16 71  1
 17 72  1
 18 73  1
 20 74  1
 21 75  1
 23 76  1
 23 77  1
 23 78  1
 24 79  1
 25 80  1
 26 81  1
 27 82  1
 29 83  1
 30 84  1
 30 85  1
 33 86  1
 34 87  1
 36 88  1
 36 89  1
 36 90  1
 37 91  1
 38 92  1
 40 93  1
 41 94  1
 43 95  1
 43 96  1
 43 97  1
 44 98  1
 45 99  1
 47100  1
 48101  1
 49102  1
 50103  1
 51104  1
 53105  1
 54106  1
 55107  1
 56108  1
 57109  1
M  CHG  1   4   2
M  END
$$$$
