
  --CCDC--092525    3D                              

 80 84  0  0  0  0  0  0  0  0999 V2000
   -0.9127    0.3447   -0.0456 Cl     0
    0.7226    2.1643    0.0893 Ru     0
    0.7351    2.3480   -2.0402 C      0
   -0.0065    3.4686   -2.7354 C      0
    0.1911    3.5940   -4.1175 C      0
   -0.3668    4.6312   -4.8397 C      0
   -1.1364    5.5655   -4.1872 C      0
   -1.3462    5.4627   -2.8213 C      0
   -0.7949    4.4240   -2.0619 C      0
   -1.1003    4.3551   -0.5703 C      0
   -1.7740    5.6591   -0.1844 C      0
    0.0627    4.1930    0.2260 N      0
    1.0855    5.0776   -0.2081 C      0
   -0.2633    4.4773    1.5793 C      0
    0.7107    2.0075    2.5341 Cl     0
    2.8085    1.6865    0.0751 C      0
    3.1082    0.2791    0.4230 N      0
    3.8797    0.2047    1.6662 C      0
    4.5984    1.5307    1.6345 C      0
    3.5324    2.4082    1.1342 N      0
    3.8941    3.7872    0.8988 C      0
    4.4534    4.2380   -0.3117 C      0
    4.8484    3.3627   -1.4732 C      0
    4.7264    5.5966   -0.4459 C      0
    4.5063    6.5109    0.5685 C      0
    4.8069    7.9776    0.3784 C      0
    3.9889    6.0339    1.7585 C      0
    3.6797    4.6913    1.9501 C      0
    3.0859    4.2878    3.2747 C      0
    2.3293   -0.8064   -0.1133 C      0
    1.5214   -1.5383    0.7621 C      0
    1.5294   -1.2998    2.2475 C      0
    0.7260   -2.5553    0.2440 C      0
    0.7267   -2.8777   -1.1021 C      0
   -0.1416   -3.9899   -1.6376 C      0
    1.5685   -2.1624   -1.9371 C      0
    2.3821   -1.1303   -1.4776 C      0
    3.2446   -0.4137   -2.4853 C      0
    1.2715    1.6142   -2.6336 H      0
    0.8002    2.8546   -4.6354 H      0
   -0.1991    4.7080   -5.9130 H      0
   -1.5818    6.3879   -4.7451 H      0
   -1.9587    6.2130   -2.3235 H      0
   -1.7962    3.5270   -0.3816 H      0
   -2.7161    5.7685   -0.7174 H      0
   -1.1446    6.5092   -0.4393 H      0
   -1.9992    5.7045    0.8791 H      0
    1.8058    4.5870   -0.8580 H      0
    1.6334    5.4656    0.6476 H      0
    0.6610    5.9241   -0.7437 H      0
   -1.1922    3.9910    1.8698 H      0
    0.5282    4.1305    2.2379 H      0
   -0.3620    5.5457    1.7592 H      0
    4.5788   -0.6302    1.6544 H      0
    3.2301    0.1220    2.5364 H      0
    5.4507    1.5088    0.9570 H      0
    4.9314    1.8302    2.6272 H      0
    4.0161    3.2423   -2.1635 H      0
    5.1519    2.3750   -1.1365 H      0
    5.6794    3.8028   -2.0205 H      0
    5.1398    5.9523   -1.3838 H      0
    4.6853    8.2643   -0.6641 H      0
    5.8291    8.2033    0.6749 H      0
    4.1369    8.5896    0.9786 H      0
    3.8127    6.7324    2.5698 H      0
    3.0697    3.2049    3.3766 H      0
    2.0650    4.6524    3.3668 H      0
    3.6673    4.6968    4.0983 H      0
    0.7199   -1.8451    2.7283 H      0
    1.4069   -0.2445    2.4756 H      0
    2.4678   -1.6381    2.6808 H      0
    0.0894   -3.1187    0.9182 H      0
   -0.3022   -4.7532   -0.8791 H      0
    0.3244   -4.4618   -2.5000 H      0
   -1.1129   -3.6072   -1.9443 H      0
    1.5931   -2.4147   -2.9921 H      0
    3.0514   -0.7855   -3.4894 H      0
    4.2992   -0.5671   -2.2662 H      0
    3.0512    0.6559   -2.4792 H      0
    3.2370    1.9272   -0.8966 H      0
  1  2  1
  2  3  2
  3  4  1
  4  5  4
  5  6  4
  6  7  4
  7  8  4
  8  9  4
  4  9  4
  9 10  1
 10 11  1
 10 12  1
  2 12  1
 12 13  1
 12 14  1
  2 15  1
  2 16  1
 16 17  1
 17 18  1
 18 19  1
 19 20  1
 16 20  1
 20 21  1
 21 22  4
 22 23  1
 22 24  4
 24 25  4
 25 26  1
 25 27  4
 27 28  4
 21 28  4
 28 29  1
 17 30  1
 30 31  4
 31 32  1
 31 33  4
 33 34  4
 34 35  1
 34 36  4
 36 37  4
 30 37  4
 37 38  1
  3 39  1
  5 40  1
  6 41  1
  7 42  1
  8 43  1
 10 44  1
 11 45  1
 11 46  1
 11 47  1
 13 48  1
 13 49  1
 13 50  1
 14 51  1
 14 52  1
 14 53  1
 18 54  1
 18 55  1
 19 56  1
 19 57  1
 23 58  1
 23 59  1
 23 60  1
 24 61  1
 26 62  1
 26 63  1
 26 64  1
 27 65  1
 29 66  1
 29 67  1
 29 68  1
 32 69  1
 32 70  1
 32 71  1
 33 72  1
 35 73  1
 35 74  1
 35 75  1
 36 76  1
 38 77  1
 38 78  1
 38 79  1
 16 80  1
M  END
$$$$
