
     RDKit          3D

 29 30  0  0  0  0  0  0  0  0999 V2000
    2.1367    0.5733    3.3406 Cl  0  0  0  0  0  0  0  0  0  0  0  0
   -0.5711    0.6147    3.1260 Au  0  0  0  0  0  3  0  0  0  0  0  0
   -0.0369    0.1021    0.4272 C   0  0  0  0  0  0  0  0  0  0  0  0
   -1.3712    0.0549   -0.0466 N   0  0  0  0  0  0  0  0  0  0  0  0
   -2.2539   -1.1173   -0.0087 C   0  0  0  0  0  0  0  0  0  0  0  0
   -3.5902   -0.3999    0.2306 C   0  0  0  0  0  0  0  0  0  0  0  0
   -3.4853    0.6332   -0.8861 C   0  0  0  0  0  0  0  0  0  0  0  0
   -2.0913    1.1608   -0.6509 C   0  0  0  0  0  0  0  0  0  0  0  0
    1.2603   -0.0066    0.0520 N   0  0  0  0  0  0  0  0  0  0  0  0
    1.9271   -1.2773    0.0851 C   0  0  0  0  0  0  0  0  0  0  0  0
    3.4117   -0.9021    0.0992 C   0  0  0  0  0  0  0  0  0  0  0  0
    3.4294    0.3976   -0.6204 C   0  0  0  0  0  0  0  0  0  0  0  0
    2.1189    1.0632   -0.3372 C   0  0  0  0  0  0  0  0  0  0  0  0
   -2.0198   -1.7951    0.8121 H   0  0  0  0  0  0  0  0  0  0  0  0
   -2.3484   -1.5814   -0.9997 H   0  0  0  0  0  0  0  0  0  0  0  0
   -3.4975    0.0577    1.2237 H   0  0  0  0  0  0  0  0  0  0  0  0
   -4.4431   -1.0716    0.1130 H   0  0  0  0  0  0  0  0  0  0  0  0
   -3.5263    0.0410   -1.8356 H   0  0  0  0  0  0  0  0  0  0  0  0
   -4.2664    1.4024   -0.8378 H   0  0  0  0  0  0  0  0  0  0  0  0
   -1.5921    1.5253   -1.5757 H   0  0  0  0  0  0  0  0  0  0  0  0
   -2.1460    2.0229    0.0508 H   0  0  0  0  0  0  0  0  0  0  0  0
    1.7114   -1.8695   -0.8108 H   0  0  0  0  0  0  0  0  0  0  0  0
    1.7448   -1.8366    1.0284 H   0  0  0  0  0  0  0  0  0  0  0  0
    3.7111   -0.7334    1.1541 H   0  0  0  0  0  0  0  0  0  0  0  0
    4.0214   -1.6928   -0.3823 H   0  0  0  0  0  0  0  0  0  0  0  0
    3.4446    0.2158   -1.7408 H   0  0  0  0  0  0  0  0  0  0  0  0
    4.2930    1.0465   -0.3387 H   0  0  0  0  0  0  0  0  0  0  0  0
    1.7331    1.6370   -1.2110 H   0  0  0  0  0  0  0  0  0  0  0  0
    2.2963    1.7352    0.5394 H   0  0  0  0  0  0  0  0  0  0  0  0
  1  2  1  0
  2  3  2  3
  3  4  1  0
  4  5  1  0
  5  6  1  0
  6  7  1  0
  7  8  1  0
  3  9  1  0
  9 10  1  0
 10 11  1  0
 11 12  1  0
 12 13  1  0
  8  4  1  0
 13  9  1  0
  5 14  1  0
  5 15  1  0
  6 16  1  0
  6 17  1  0
  7 18  1  0
  7 19  1  0
  8 20  1  0
  8 21  1  0
 10 22  1  0
 10 23  1  0
 11 24  1  0
 11 25  1  0
 12 26  1  0
 12 27  1  0
 13 28  1  0
 13 29  1  0
M  END
