
  --CCDC--092525    3D                              

 87103  0  0  0  0  0  0  0  0999 V2000
    8.3723    1.0374    4.1570 H      0
    7.4928    1.0911    3.5240 C      0
    7.1415    0.0381    2.7182 C      0
    7.7620   -0.8518    2.7034 H      0
    6.0111    0.0931    1.9181 C      0
    5.8554   -0.7704    1.2942 H      0
    5.1377    1.1945    1.9154 C      0
    3.5773    1.5029    0.9708 P      3
    2.6005    2.6375    2.0573 C      0
    1.6984    3.6561    1.7088 C      0
    1.4859    3.8765    0.6758 H      0
    1.0402    4.4333    2.6483 C      0
    0.3621    5.2131    2.3178 H      0
    1.2351    4.2298    3.9912 C      0
    0.7242    4.8437    4.7256 H      0
    2.0859    3.2283    4.3835 C      0
    2.2474    3.0397    5.4398 H      0
    2.7352    2.4531    3.4381 C      0
    3.3726    1.6504    3.7926 H      0
    3.9146    1.6833   -1.5694 Ru     0
    2.2204    1.2662   -1.1585 H      0
    2.1905   -0.2573   -0.2549 Ru     0
    4.5664   -0.4670   -0.6420 Cl     0
    0.3303    0.0506    0.3750 C      0
    0.1914    1.4575   -0.1250 C      0
   -0.7171    1.9197    0.2554 H      0
    0.1611    1.4806   -1.2113 H      0
    1.0261    2.0179    0.2260 H      0
    1.2651   -0.7597    1.4089 C      0
    2.1404   -0.4547    2.6570 C      0
    1.6756    0.3304    3.2409 H      0
    3.1759   -0.2293    2.4731 H      0
    2.1409   -1.3358    3.2953 H      0
    2.1656   -1.9269    0.7560 C      0
    3.6547   -2.3492    1.0418 C      0
    4.2457   -2.7200    0.2190 H      0
    3.6101   -3.1895    1.7316 H      0
    4.1899   -1.5885    1.5836 H      0
    2.0752   -2.1614   -0.8184 C      0
    3.0629   -2.5211   -1.9460 C      0
    2.6596   -3.3446   -2.5317 H      0
    4.0534   -2.8213   -1.6229 H      0
    3.1681   -1.6767   -2.6170 H      0
    1.0200   -1.3249   -1.5408 C      0
    0.6712   -1.1502   -3.0047 C      0
    0.2153   -0.1791   -3.1825 H      0
   -0.0412   -1.9111   -3.3168 H      0
    1.5503   -1.2376   -3.6386 H      0
    0.2425   -1.1734   -0.4463 C      0
    0.3822   -2.7585   -0.1710 C      0
    0.9155   -3.4158   -0.8611 H      0
   -0.6321   -3.0875   -0.3873 H      0
    0.4526   -3.0985    0.8661 H      0
    3.4536    2.3116   -3.4356 C      0
    2.5247    1.0959   -3.1862 C      0
    2.4273    0.5950   -4.1473 H      0
    1.4915    1.2963   -2.9293 H      0
    2.9648    0.3487   -2.5450 H      0
    4.6163    1.3733   -3.5516 C      0
    4.8209   -0.1659   -3.8121 C      0
    4.8610   -0.7805   -2.9281 H      0
    5.7536   -0.3219   -4.3500 H      0
    4.0231   -0.5544   -4.4419 H      0
    5.7104    1.5259   -2.6041 C      0
    6.7071    0.5813   -1.8448 C      0
    6.6306    0.5862   -0.7659 H      0
    7.7203    0.9080   -2.0694 H      0
    6.6508   -0.4534   -2.1741 H      0
    5.7338    2.6790   -1.7016 C      0
    6.2420    2.9892   -0.2526 C      0
    6.8612    2.2037    0.1686 H      0
    5.4436    3.1860    0.4414 H      0
    6.8575    3.8860   -0.2783 H      0
    4.6396    3.6790   -1.6335 C      0
    3.9840    4.5997   -0.5098 C      0
    3.6601    4.0756    0.3718 H      0
    3.2563    5.3278   -0.8643 H      0
    4.7938    5.2248   -0.1395 H      0
    3.4937    3.4544   -2.4317 C      0
    2.3001    3.2093   -1.4794 C      0
    1.4281    2.7676   -1.9334 H      0
    1.8278    4.1605   -1.2438 H      0
    2.5640    2.7780   -0.5367 H      0
    5.5867    2.2681    2.6971 C      0
    5.0329    3.1998    2.6695 H      0
    6.7143    2.2188    3.4978 C      0
    6.9862    3.0777    4.1024 H      0
  1  2  1
  2  3  4
  3  4  1
  3  5  4
  5  6  1
  5  7  4
  7  8  1
  8  9  1
  9 10  4
 10 11  1
 10 12  4
 12 13  1
 12 14  4
 14 15  1
 14 16  4
 16 17  1
 16 18  4
  9 18  4
 18 19  1
  8 20  1
 20 21  1
 21 22  1
  8 22  1
 20 22  1
 22 23  1
 20 23  1
 22 24  1
 24 25  1
 25 26  1
 25 27  1
 25 28  1
 24 29  4
 22 29  1
 29 30  1
 30 31  1
 30 32  1
 30 33  1
 29 34  4
 22 34  1
 34 35  1
 35 36  1
 35 37  1
 35 38  1
 34 39  4
 22 39  1
 39 40  1
 40 41  1
 40 42  1
 40 43  1
 39 44  4
 22 44  1
 44 45  1
 45 46  1
 45 47  1
 45 48  1
 44 49  4
 24 49  4
 22 49  1
 49 50  1
 50 51  1
 50 52  1
 50 53  1
 20 54  1
 54 55  1
 55 56  1
 55 57  1
 55 58  1
 54 59  4
 20 59  1
 59 60  1
 60 61  1
 60 62  1
 60 63  1
 59 64  4
 20 64  1
 64 65  1
 65 66  1
 65 67  1
 65 68  1
 64 69  4
 20 69  1
 69 70  1
 70 71  1
 70 72  1
 70 73  1
 69 74  4
 20 74  1
 74 75  1
 75 76  1
 75 77  1
 75 78  1
 74 79  4
 54 79  4
 20 79  1
 79 80  1
 80 81  1
 80 82  1
 80 83  1
  7 84  4
 84 85  1
 84 86  4
  2 86  4
 86 87  1
M  CHG  1   8   1
M  END
$$$$
