
 OpenBabel09252517333D

 29 30  0  0  0  0  0  0  0  0999 V2000
    0.9528    0.0838    0.0273 H   0  0  0  0  0  0  0  0  0  0  0  0
    2.0228    0.0838    0.0273 C   0  0  0  0  0  0  0  0  0  0  0  0
    2.2972    0.0335   -1.0057 H   0  0  0  0  0  0  0  0  0  0  0  0
    2.5589    1.2648    0.7289 N   0  0  0  0  0  0  0  0  0  0  0  0
    1.8687    2.5483    0.9219 C   0  0  0  0  0  0  0  0  0  0  0  0
    2.7292    3.9569    1.8575 Au  0  0  0  0  0  0  0  0  0  0  0  0
    3.8085    5.7238    3.0312 Cl  0  0  0  0  0  0  0  0  0  0  0  0
    0.5119    2.7404    0.3899 N   0  0  0  0  0  0  0  0  0  0  0  0
   -0.6830    1.9531    0.7461 C   0  0  0  0  0  0  0  0  0  0  0  0
   -1.2645    2.3831    1.5346 H   0  0  0  0  0  0  0  0  0  0  0  0
   -0.4158    0.9799    1.1016 H   0  0  0  0  0  0  0  0  0  0  0  0
   -1.4072    1.8748   -0.5693 C   0  0  0  0  0  0  0  0  0  0  0  0
   -1.0033    1.1365   -1.2300 H   0  0  0  0  0  0  0  0  0  0  0  0
   -2.4320    1.6012   -0.4284 H   0  0  0  0  0  0  0  0  0  0  0  0
   -1.2860    3.3268   -1.1225 C   0  0  0  0  0  0  0  0  0  0  0  0
   -1.3809    3.3785   -2.1870 H   0  0  0  0  0  0  0  0  0  0  0  0
   -2.0626    3.9514   -0.7331 H   0  0  0  0  0  0  0  0  0  0  0  0
    0.0870    3.7815   -0.6207 C   0  0  0  0  0  0  0  0  0  0  0  0
    0.7927    3.8704   -1.4201 H   0  0  0  0  0  0  0  0  0  0  0  0
    0.0165    4.7442   -0.1590 H   0  0  0  0  0  0  0  0  0  0  0  0
    3.9477    0.9153    1.2136 C   0  0  0  0  0  0  0  0  0  0  0  0
    4.1181    1.2589    2.2125 H   0  0  0  0  0  0  0  0  0  0  0  0
    4.6875    1.3785    0.5946 H   0  0  0  0  0  0  0  0  0  0  0  0
    4.0437   -0.6092    1.1127 C   0  0  0  0  0  0  0  0  0  0  0  0
    4.4681   -1.0607    1.9851 H   0  0  0  0  0  0  0  0  0  0  0  0
    4.6763   -0.9006    0.3004 H   0  0  0  0  0  0  0  0  0  0  0  0
    2.5695   -1.0452    0.8564 C   0  0  0  0  0  0  0  0  0  0  0  0
    2.0167   -1.2134    1.7569 H   0  0  0  0  0  0  0  0  0  0  0  0
    2.5296   -1.9704    0.3204 H   0  0  0  0  0  0  0  0  0  0  0  0
  1  2  1  0  0  0  0
  2  3  1  0  0  0  0
  2  4  1  0  0  0  0
  2 27  1  0  0  0  0
  4  5  1  0  0  0  0
  4 21  1  0  0  0  0
  5  6  2  0  0  0  0
  5  8  1  0  0  0  0
  6  7  1  0  0  0  0
  8  9  1  0  0  0  0
  8 18  1  0  0  0  0
  9 10  1  0  0  0  0
  9 11  1  0  0  0  0
  9 12  1  0  0  0  0
 12 13  1  0  0  0  0
 12 14  1  0  0  0  0
 12 15  1  0  0  0  0
 15 16  1  0  0  0  0
 15 17  1  0  0  0  0
 15 18  1  0  0  0  0
 18 19  1  0  0  0  0
 18 20  1  0  0  0  0
 21 22  1  0  0  0  0
 21 23  1  0  0  0  0
 21 24  1  0  0  0  0
 24 25  1  0  0  0  0
 24 26  1  0  0  0  0
 24 27  1  0  0  0  0
 27 28  1  0  0  0  0
 27 29  1  0  0  0  0
M  END
$$$$
