
  --CCDC--092525    3D                              

 26 29  0  0  0  0  0  0  0  0999 V2000
    1.3649   -2.1031    2.3721 H      0
    0.5250   -1.7860    1.7679 C      0
    0.9222   -1.1641    0.5564 C      0
    2.3511   -1.0486    0.2182 C      0
    2.6860   -0.5117   -0.8296 O      0
    3.4028   -1.5453    1.1664 C      0
    3.1678   -1.2677    2.1917 H      0
    4.3702   -1.1137    0.9225 H      0
    3.4990   -2.6266    1.1230 H      0
   -0.1065   -0.5194   -0.3629 C      0
   -0.2520   -0.4861   -1.4531 H      0
   -0.9569   -0.2881    0.8519 C      0
   -1.0266   -0.8606    1.9156 H      0
   -2.3913   -0.7827    0.9745 C      0
   -2.9922   -0.9093    0.0443 H      0
   -2.1039   -1.9946    1.8644 C      0
   -2.5339   -2.9819    1.5947 H      0
   -0.7247   -2.0935    2.3877 N      0
   -0.6382   -2.5584    3.2917 H      0
   -1.2441   -2.2291   -0.0124 Fe     0
   -1.8866   -2.6616   -2.0701 C      0
   -2.2207   -2.8834   -3.1349 O      0
    0.4107   -3.6059   -0.4922 C      0
    1.2662   -4.3176   -0.7402 O      0
   -1.9449   -4.3122   -0.0134 C      0
   -2.3183   -5.3878   -0.0134 O      0
  1  2  1
  2  3  2
  3  4  1
  4  5  2
  4  6  1
  6  7  1
  6  8  1
  6  9  1
  3 10  1
 10 11  1
 10 12  2
 12 13  1
 12 14  1
 14 15  1
 14 16  2
 16 17  1
 16 18  1
  2 18  1
 18 19  1
 16 20  1
 14 20  1
 12 20  1
 10 20  1
 20 21  1
 21 22  3
 20 23  1
 23 24  3
 20 25  1
 25 26  3
M  END
$$$$
