
 OpenBabel09252514463D

 42 41  0  0  0  0  0  0  0  0999 V2000
    1.0972    0.0234    0.0029 C   0  0  0  0  0  0  0  0  0  0  0  0
    0.3905    0.1507    1.9976 Pt  0  0  0  0  0  0  0  0  0  0  0  0
    2.1215    1.2475    2.5408 C   0  0  0  0  0  0  0  0  0  0  0  0
   -0.6089    1.9605    1.5281 C   0  0  0  0  0  0  0  0  0  0  0  0
   -0.2995    0.2750    3.9452 N   0  0  0  0  0  0  0  0  0  0  0  0
    0.3873    0.8826    4.8252 N   0  3  0  0  0  0  0  0  0  0  0  0
    1.0742    1.4902    5.7051 N   0  5  0  0  0  0  0  0  0  0  0  0
   -1.5936   -1.1065    1.3749 P   0  0  0  0  0  4  0  0  0  0  0  0
   -1.1869   -2.2482    0.0038 C   0  0  0  0  0  0  0  0  0  0  0  0
   -2.1830   -2.0688    2.8155 C   0  0  0  0  0  0  0  0  0  0  0  0
   -2.9050    0.0508    0.8365 C   0  0  0  0  0  0  0  0  0  0  0  0
    1.5360   -1.9237    2.5358 P   0  0  0  0  0  4  0  0  0  0  0  0
    0.8911   -3.2692    1.4763 C   0  0  0  0  0  0  0  0  0  0  0  0
    3.3311   -1.7231    2.2421 C   0  0  0  0  0  0  0  0  0  0  0  0
    1.2484   -2.3408    4.2942 C   0  0  0  0  0  0  0  0  0  0  0  0
    0.7405    0.8632   -0.5561 H   0  0  0  0  0  0  0  0  0  0  0  0
    0.7405   -0.8806   -0.4449 H   0  0  0  0  0  0  0  0  0  0  0  0
    2.1672    0.0234    0.0029 H   0  0  0  0  0  0  0  0  0  0  0  0
    2.4661    1.8102    1.6985 H   0  0  0  0  0  0  0  0  0  0  0  0
    1.8837    1.9151    3.3425 H   0  0  0  0  0  0  0  0  0  0  0  0
    2.8882    0.5709    2.8557 H   0  0  0  0  0  0  0  0  0  0  0  0
   -1.6585    1.8432    1.6998 H   0  0  0  0  0  0  0  0  0  0  0  0
   -0.2318    2.7472    2.1475 H   0  0  0  0  0  0  0  0  0  0  0  0
   -0.4407    2.2044    0.4999 H   0  0  0  0  0  0  0  0  0  0  0  0
   -0.4201   -2.9249    0.3186 H   0  0  0  0  0  0  0  0  0  0  0  0
   -2.0606   -2.8018   -0.2704 H   0  0  0  0  0  0  0  0  0  0  0  0
   -0.8423   -1.6856   -0.8386 H   0  0  0  0  0  0  0  0  0  0  0  0
   -2.4208   -1.4012    3.6172 H   0  0  0  0  0  0  0  0  0  0  0  0
   -3.0567   -2.6224    2.5413 H   0  0  0  0  0  0  0  0  0  0  0  0
   -1.4163   -2.7454    3.1303 H   0  0  0  0  0  0  0  0  0  0  0  0
   -3.1428    0.7183    1.6382 H   0  0  0  0  0  0  0  0  0  0  0  0
   -2.5603    0.6134   -0.0059 H   0  0  0  0  0  0  0  0  0  0  0  0
   -3.7786   -0.5028    0.5623 H   0  0  0  0  0  0  0  0  0  0  0  0
    1.0593   -3.0253    0.4481 H   0  0  0  0  0  0  0  0  0  0  0  0
    1.3955   -4.1826    1.7133 H   0  0  0  0  0  0  0  0  0  0  0  0
   -0.1585   -3.3865    1.6480 H   0  0  0  0  0  0  0  0  0  0  0  0
    3.7082   -0.9364    2.8616 H   0  0  0  0  0  0  0  0  0  0  0  0
    3.8355   -2.6365    2.4791 H   0  0  0  0  0  0  0  0  0  0  0  0
    3.4993   -1.4792    1.2139 H   0  0  0  0  0  0  0  0  0  0  0  0
    1.6255   -1.5540    4.9137 H   0  0  0  0  0  0  0  0  0  0  0  0
    0.1988   -2.4580    4.4660 H   0  0  0  0  0  0  0  0  0  0  0  0
    1.7529   -3.2542    4.5312 H   0  0  0  0  0  0  0  0  0  0  0  0
  1  2  1  0  0  0  0
  1 16  1  0  0  0  0
  1 17  1  0  0  0  0
  1 18  1  0  0  0  0
  2  3  1  0  0  0  0
  2  4  1  0  0  0  0
  2  5  1  0  0  0  0
  2  8  1  0  0  0  0
  2 12  1  0  0  0  0
  3 19  1  0  0  0  0
  3 20  1  0  0  0  0
  3 21  1  0  0  0  0
  4 22  1  0  0  0  0
  4 23  1  0  0  0  0
  4 24  1  0  0  0  0
  5  6  2  0  0  0  0
  6  7  2  0  0  0  0
  8  9  1  0  0  0  0
  8 10  1  0  0  0  0
  8 11  1  0  0  0  0
  9 25  1  0  0  0  0
  9 26  1  0  0  0  0
  9 27  1  0  0  0  0
 10 28  1  0  0  0  0
 10 29  1  0  0  0  0
 10 30  1  0  0  0  0
 11 31  1  0  0  0  0
 11 32  1  0  0  0  0
 11 33  1  0  0  0  0
 12 13  1  0  0  0  0
 12 14  1  0  0  0  0
 12 15  1  0  0  0  0
 13 34  1  0  0  0  0
 13 35  1  0  0  0  0
 13 36  1  0  0  0  0
 14 37  1  0  0  0  0
 14 38  1  0  0  0  0
 14 39  1  0  0  0  0
 15 40  1  0  0  0  0
 15 41  1  0  0  0  0
 15 42  1  0  0  0  0
M  CHG  2   6   1   7  -1
M  END
$$$$
