
 OpenBabel09252515153D

 80 95  0  0  0  0  0  0  0  0999 V2000
    1.0940    0.0303    0.0157 C   0  0  0  0  0  0  0  0  0  0  0  0
    0.6207    0.6726    1.1903 O   0  0  0  0  0  0  0  0  0  0  0  0
    0.9637    0.1577    2.4684 C   0  0  0  0  0  0  0  0  0  0  0  0
    0.0125    0.1680    3.4753 C   0  0  0  0  0  0  0  0  0  0  0  0
    0.5546    0.0542    4.7773 C   0  0  0  0  0  0  0  0  0  0  0  0
    1.7721   -0.3811    5.0462 C   0  0  0  0  0  0  0  0  0  0  0  0
    2.6455   -0.4326    3.9955 C   0  0  0  0  0  0  0  0  0  0  0  0
    2.2181   -0.2050    2.7096 C   0  0  0  0  0  0  0  0  0  0  0  0
    2.1670   -0.7885    6.4023 N   0  0  0  0  0  0  0  0  0  0  0  0
    0.8256   -0.6899    7.9228 Cu  0  0  0  0  0  0  0  0  0  0  0  0
   -0.4881   -1.4326    7.9763 P   0  0  0  0  0  4  0  0  0  0  0  0
   -1.6702   -0.5180    9.0323 C   0  0  0  0  0  0  0  0  0  0  0  0
   -2.2317   -1.1982   10.1003 C   0  0  0  0  0  0  0  0  0  0  0  0
   -3.3896   -0.5801   10.6286 C   0  0  0  0  0  0  0  0  0  0  0  0
   -3.7305    0.6778   10.4157 C   0  0  0  0  0  0  0  0  0  0  0  0
   -3.0907    1.3159    9.3896 C   0  0  0  0  0  0  0  0  0  0  0  0
   -2.0353    0.7244    8.7382 C   0  0  0  0  0  0  0  0  0  0  0  0
   -1.1774   -1.5805    6.2876 C   0  0  0  0  0  0  0  0  0  0  0  0
   -2.4117   -1.0191    6.0052 C   0  0  0  0  0  0  0  0  0  0  0  0
   -2.9610   -1.4342    4.7690 C   0  0  0  0  0  0  0  0  0  0  0  0
   -2.2702   -1.9946    3.7930 C   0  0  0  0  0  0  0  0  0  0  0  0
   -1.0301   -2.4686    4.1201 C   0  0  0  0  0  0  0  0  0  0  0  0
   -0.4797   -2.2159    5.3534 C   0  0  0  0  0  0  0  0  0  0  0  0
   -0.2531   -2.8204    8.5539 C   0  0  0  0  0  0  0  0  0  0  0  0
   -0.3340   -2.9020   10.0228 C   0  0  0  0  0  3  0  0  0  0  0  0
    1.5938   -0.7802    9.2105 C   0  0  0  0  0  0  0  0  0  0  0  0
    0.4930   -0.6322   12.1636 C   0  0  0  0  0  0  0  0  0  0  0  0
   -0.5116   -3.3736    9.7323 C   0  0  0  0  0  0  0  0  0  0  0  0
    0.7857   -2.0368   10.6577 Fe  0  0  0  0  0  0  0  0  0  0  0  0
    2.0958   -2.8582   12.3589 C   0  0  0  0  0  0  0  0  0  0  0  0
    2.8353   -2.8998   11.0815 C   0  0  0  0  0  3  0  0  0  0  0  0
    2.0645   -2.4198   10.0890 C   0  0  0  0  0  0  0  0  0  0  0  0
    0.5031   -0.5925   10.4306 C   0  0  0  0  0  0  0  0  0  0  0  0
    0.8578   -2.3501   12.1322 C   0  0  0  0  0  0  0  0  0  0  0  0
    0.9902    0.1549    9.1999 P   0  0  0  0  0  4  0  0  0  0  0  0
    2.7696    0.5219    9.4190 C   0  0  0  0  0  0  0  0  0  0  0  0
    3.4155    0.0936   10.5670 C   0  0  0  0  0  0  0  0  0  0  0  0
    4.6894    0.6785   10.7601 C   0  0  0  0  0  0  0  0  0  0  0  0
    5.3878    1.2811    9.8151 C   0  0  0  0  0  0  0  0  0  0  0  0
    4.7082    1.6176    8.6775 C   0  0  0  0  0  0  0  0  0  0  0  0
    3.4170    1.1938    8.4743 C   0  0  0  0  0  0  0  0  0  0  0  0
    0.0229    1.6980    9.0203 C   0  0  0  0  0  0  0  0  0  0  0  0
    0.6716    2.9202    9.0827 C   0  0  0  0  0  0  0  0  0  0  0  0
   -0.2003    4.0254    9.2250 C   0  0  0  0  0  0  0  0  0  0  0  0
   -1.4949    3.9963    8.9659 C   0  0  0  0  0  0  0  0  0  0  0  0
   -2.0638    2.7585    8.8483 C   0  0  0  0  0  0  0  0  0  0  0  0
   -1.2895    1.6236    8.8323 C   0  0  0  0  0  0  0  0  0  0  0  0
    3.5333   -1.2672    6.6574 C   0  0  0  0  0  0  0  0  0  0  0  0
    4.3730   -1.3289    5.7054 O   0  0  0  0  0  0  0  0  0  0  0  0
    3.9416   -1.6884    8.0596 C   0  0  0  0  0  0  0  0  0  0  0  0
    3.8015   -0.6591    8.8901 F   0  0  0  0  0  0  0  0  0  0  0  0
    3.1687   -2.6925    8.4636 F   0  0  0  0  0  0  0  0  0  0  0  0
    5.2120   -2.0822    8.0519 F   0  0  0  0  0  0  0  0  0  0  0  0
    0.7373    0.5548   -0.8460 H   0  0  0  0  0  0  0  0  0  0  0  0
    0.7374   -0.9783   -0.0077 H   0  0  0  0  0  0  0  0  0  0  0  0
    2.1640    0.0303    0.0157 H   0  0  0  0  0  0  0  0  0  0  0  0
   -1.0370    0.2543    3.2856 H   0  0  0  0  0  0  0  0  0  0  0  0
   -0.0649    0.3408    5.6012 H   0  0  0  0  0  0  0  0  0  0  0  0
    3.6766   -0.6532    4.1772 H   0  0  0  0  0  0  0  0  0  0  0  0
    2.9023   -0.3211    1.8952 H   0  0  0  0  0  0  0  0  0  0  0  0
   -1.8265   -2.1085   10.4903 H   0  0  0  0  0  0  0  0  0  0  0  0
   -4.0339   -1.1732   11.2435 H   0  0  0  0  0  0  0  0  0  0  0  0
   -4.4678    1.1711   11.0139 H   0  0  0  0  0  0  0  0  0  0  0  0
   -3.4164    2.2900    9.0896 H   0  0  0  0  0  0  0  0  0  0  0  0
   -1.5030    1.2697    7.9872 H   0  0  0  0  0  0  0  0  0  0  0  0
   -2.9052   -0.3337    6.6622 H   0  0  0  0  0  0  0  0  0  0  0  0
   -4.0090   -1.2834    4.6143 H   0  0  0  0  0  0  0  0  0  0  0  0
   -2.6599   -2.0735    2.7996 H   0  0  0  0  0  0  0  0  0  0  0  0
   -0.4804   -3.0447    3.4053 H   0  0  0  0  0  0  0  0  0  0  0  0
    0.5202   -2.5340    5.5630 H   0  0  0  0  0  0  0  0  0  0  0  0
    2.9898   -0.6152   11.2462 H   0  0  0  0  0  0  0  0  0  0  0  0
    5.1164    0.6291   11.7400 H   0  0  0  0  0  0  0  0  0  0  0  0
    6.4296    1.4946    9.9334 H   0  0  0  0  0  0  0  0  0  0  0  0
    5.1886    2.2195    7.9347 H   0  0  0  0  0  0  0  0  0  0  0  0
    2.9288    1.4073    7.5464 H   0  0  0  0  0  0  0  0  0  0  0  0
    1.7356    3.0195    9.0283 H   0  0  0  0  0  0  0  0  0  0  0  0
    0.2184    4.9491    9.5661 H   0  0  0  0  0  0  0  0  0  0  0  0
   -2.0679    4.8930    8.8542 H   0  0  0  0  0  0  0  0  0  0  0  0
   -3.1273    2.6725    8.7674 H   0  0  0  0  0  0  0  0  0  0  0  0
   -1.7483    0.6711    8.6670 H   0  0  0  0  0  0  0  0  0  0  0  0
  1  2  1  0  0  0  0
  1 54  1  0  0  0  0
  1 55  1  0  0  0  0
  1 56  1  0  0  0  0
  2  3  1  0  0  0  0
  3  4  1  0  0  0  0
  3  8  2  0  0  0  0
  4  5  2  0  0  0  0
  4 57  1  0  0  0  0
  5  6  1  0  0  0  0
  5 58  1  0  0  0  0
  6  7  2  0  0  0  0
  6  9  1  0  0  0  0
  7  8  1  0  0  0  0
  7 59  1  0  0  0  0
  8 60  1  0  0  0  0
  9 10  1  0  0  0  0
  9 48  1  0  0  0  0
 10 11  1  0  0  0  0
 10 35  1  0  0  0  0
 11 12  1  0  0  0  0
 11 18  1  0  0  0  0
 11 24  1  0  0  0  0
 12 13  1  0  0  0  0
 12 17  2  0  0  0  0
 13 14  2  0  0  0  0
 13 61  1  0  0  0  0
 14 15  1  0  0  0  0
 14 62  1  0  0  0  0
 15 16  2  0  0  0  0
 15 63  1  0  0  0  0
 16 17  1  0  0  0  0
 16 64  1  0  0  0  0
 17 65  1  0  0  0  0
 18 19  1  0  0  0  0
 18 23  2  0  0  0  0
 19 20  2  0  0  0  0
 19 66  1  0  0  0  0
 20 21  1  0  0  0  0
 20 67  1  0  0  0  0
 21 22  2  0  0  0  0
 21 68  1  0  0  0  0
 22 23  1  0  0  0  0
 22 69  1  0  0  0  0
 23 70  1  0  0  0  0
 24 25  1  0  0  0  0
 24 28  2  0  0  0  0
 24 29  1  0  0  0  0
 25 26  1  0  0  0  0
 25 29  1  0  0  0  0
 26 27  2  0  0  0  0
 26 29  1  0  0  0  0
 27 28  1  0  0  0  0
 27 29  1  0  0  0  0
 28 29  1  0  0  0  0
 29 30  1  0  0  0  0
 29 31  1  0  0  0  0
 29 32  1  0  0  0  0
 29 33  1  0  0  0  0
 29 34  1  0  0  0  0
 30 31  1  0  0  0  0
 30 34  2  0  0  0  0
 31 32  1  0  0  0  0
 32 33  2  0  0  0  0
 33 34  1  0  0  0  0
 33 35  1  0  0  0  0
 35 36  1  0  0  0  0
 35 42  1  0  0  0  0
 36 37  1  0  0  0  0
 36 41  2  0  0  0  0
 37 38  2  0  0  0  0
 37 71  1  0  0  0  0
 38 39  1  0  0  0  0
 38 72  1  0  0  0  0
 39 40  2  0  0  0  0
 39 73  1  0  0  0  0
 40 41  1  0  0  0  0
 40 74  1  0  0  0  0
 41 75  1  0  0  0  0
 42 43  1  0  0  0  0
 42 47  2  0  0  0  0
 43 44  2  0  0  0  0
 43 76  1  0  0  0  0
 44 45  1  0  0  0  0
 44 77  1  0  0  0  0
 45 46  2  0  0  0  0
 45 78  1  0  0  0  0
 46 47  1  0  0  0  0
 46 79  1  0  0  0  0
 47 80  1  0  0  0  0
 48 49  2  0  0  0  0
 48 50  1  0  0  0  0
 50 51  1  0  0  0  0
 50 52  1  0  0  0  0
 50 53  1  0  0  0  0
M  END
$$$$
