
  --CCDC--092525    3D                              

 75 87  0  0  0  0  0  0  0  0999 V2000
    1.8099   -2.7661    1.0421 H      0
    1.2210   -1.8639    0.9107 C      0
    2.2176   -0.6460    0.5685 C      0
    3.3660   -0.5598    0.5298 H      0
    1.4030    0.2633   -0.0466 C      0
    1.7917    1.0814   -0.6333 H      0
   -0.0077   -0.0113    0.0050 C      0
   -0.5685    1.3575    0.3655 C      0
    0.5290    2.3628    1.4579 Si     0
    1.8649    1.7311    2.6214 C      0
    2.6353    1.0645    2.2080 H      0
    1.6091    1.5443    3.6741 H      0
    2.4912    2.6093    2.7807 H      0
   -0.2230    3.9416    2.1526 C      0
   -1.2506    4.2074    1.8713 H      0
    0.3239    4.6969    1.6336 H      0
    0.0386    4.1930    3.1888 H      0
    1.4492    3.3480    0.1631 C      0
    0.7980    3.5841   -0.6757 H      0
    2.3312    2.8426   -0.2150 H      0
    1.8185    4.2819    0.5750 H      0
   -1.6066    1.7925    1.2918 C      0
   -1.7503    2.3781    2.3826 H      0
   -1.9926    0.1622    0.9348 C      0
   -0.8641   -1.1876    0.4272 C      0
   -0.2590   -2.4161    1.0023 C      0
   -0.7495   -3.3815    1.3814 H      0
   -0.3506    0.0079    2.3209 Zr     0
    1.6169    1.8993    2.3758 Cl     0
    2.0615   -1.1335    1.8528 Cl     0
    0.6082   -0.4387    4.4354 C      0
    1.6891   -0.3350    4.4712 H      0
   -0.3902    0.6625    4.5612 C      0
    0.4679   -0.9501    4.0378 Si     0
    2.3259   -0.7875    3.6265 C      0
    2.8032   -1.6657    4.0621 H      0
    2.9168    0.0572    4.0151 H      0
    2.6393   -0.8273    2.6139 H      0
    0.6911   -2.6929    4.8249 C      0
   -0.0743   -3.0642    5.5449 H      0
    1.4872   -2.5058    5.5348 H      0
    1.1526   -3.5364    4.2610 H      0
    0.8267   -0.6801    5.8965 C      0
    0.2466   -1.3721    6.5096 H      0
    0.5482    0.3117    6.2660 H      0
    1.8692   -0.8081    6.2163 H      0
   -1.7046    0.1200    4.2283 C      0
   -0.6220   -0.6301    4.0618 C      0
    0.1124    0.1578    3.6905 H      0
   -0.9761   -1.9928    3.7295 C      0
   -1.8744   -2.6336    3.7232 H      0
    0.1240   -2.7181    3.8014 C      0
   -0.4557   -3.6828    3.7822 H      0
   -0.1953   -1.3732    3.6552 C      0
    0.2225   -0.9037    2.7395 H      0
   -1.5446   -1.2352    3.7941 C      0
   -0.1627   -1.6633    3.9355 C      0
   -2.0630   -1.0818    4.0251 Si     0
   -3.2111   -2.3037    3.1356 C      0
   -2.8381   -2.6911    2.1799 H      0
   -4.0969   -1.7436    2.8841 H      0
   -3.5799   -3.1327    3.7522 H      0
   -2.8023   -1.1011    5.7728 C      0
   -3.1993   -2.0874    5.9986 H      0
   -3.6236   -0.3910    5.8366 H      0
   -2.0821   -0.8583    6.5551 H      0
   -2.0696    1.1304    2.6295 Si     0
   -1.2993    2.7435    3.3710 C      0
   -1.8455    3.7073    3.3903 H      0
   -0.3238    2.6670    3.8640 H      0
   -1.7874    2.5985    4.3093 H      0
   -3.8682    1.6954    2.5521 C      0
   -4.0304    2.5221    1.8633 H      0
   -4.1998    2.0092    3.5395 H      0
   -4.4930    0.8634    2.2345 H      0
  1  2  1
  2  3  4
  3  4  1
  3  5  4
  5  6  1
  5  7  4
  7  8  4
  8  9  1
  9 10  1
 10 11  1
 10 12  1
 10 13  1
  9 14  1
 14 15  1
 14 16  1
 14 17  1
  9 18  1
 18 19  1
 18 20  1
 18 21  1
  8 22  4
 22 23  1
 22 24  4
 24 25  4
  7 25  4
 25 26  4
  2 26  4
 26 27  1
 25 28  1
 22 28  1
 24 28  1
  8 28  1
  7 28  1
 28 29  1
 28 30  1
 28 31  1
 31 32  1
 31 33  4
 28 33  1
 33 34  1
 34 35  1
 35 36  1
 35 37  1
 35 38  1
 34 39  1
 39 40  1
 39 41  1
 39 42  1
 34 43  1
 43 44  1
 43 45  1
 43 46  1
 33 47  4
 28 47  1
 47 48  4
 48 49  1
 48 50  4
 50 51  1
 50 52  4
 52 53  1
 52 54  4
 54 55  1
 54 56  4
 47 56  4
 28 56  1
 56 57  4
 31 57  4
 28 57  1
 57 58  1
 58 59  1
 59 60  1
 59 61  1
 59 62  1
 58 63  1
 63 64  1
 63 65  1
 63 66  1
 58 67  1
 24 67  1
 67 68  1
 68 69  1
 68 70  1
 68 71  1
 67 72  1
 72 73  1
 72 74  1
 72 75  1
M  END
$$$$
