
  --CCDC--092525    3D                              

 76 82  0  0  0  0  0  0  0  0999 V2000
   -4.3690   -1.7245    5.9191 H      0
   -4.1857   -1.8359    4.8556 C      0
   -5.1714   -2.3331    4.0322 C      0
   -6.1335   -2.6120    4.4491 H      0
   -4.9402   -2.4782    2.6744 C      0
   -5.7279   -2.8675    2.0379 H      0
   -3.7100   -2.1329    2.1109 C      0
   -3.4327   -2.3050    0.3233 P      0
   -4.4706   -0.8231    0.4525 C      0
   -5.8261   -0.8759    0.1215 C      0
   -6.2511   -1.8018   -0.2517 H      0
   -6.6341    0.2402    0.2616 C      0
   -7.6833    0.1851   -0.0091 H      0
   -6.1114    1.4197    0.7451 C      0
   -6.7466    2.2929    0.8511 H      0
   -4.7810    1.4868    1.0970 C      0
   -4.3706    2.4136    1.4841 H      0
   -3.9657    0.3756    0.9601 C      0
   -2.9218    0.4378    1.2492 H      0
   -3.4500   -4.0519    0.7761 C      0
   -4.5325   -4.9331    0.7857 C      0
   -5.4929   -4.6246    0.3861 H      0
   -4.3754   -6.1983    1.3289 C      0
   -5.2125   -6.8885    1.3353 H      0
   -3.1680   -6.5827    1.8747 C      0
   -3.0675   -7.5676    2.3188 H      0
   -2.0810   -5.7238    1.8546 C      0
   -1.1321   -6.0340    2.2797 H      0
   -2.2084   -4.4669    1.2658 C      0
   -1.1432   -3.4013    1.0669 C      0
   -0.0940   -3.2013    1.8097 N      0
    0.5479   -2.1716    1.1028 C      0
    1.8839   -2.1768    0.6977 C      0
    2.5875   -2.8801    1.1307 H      0
    2.2926   -1.2963   -0.3185 C      0
    3.3424   -1.2888   -0.5924 H      0
    1.4195   -0.4862   -1.0494 C      0
    1.7679    0.0726   -1.9117 H      0
    0.1199   -0.3626   -0.6039 C      0
   -0.5609    0.4119   -0.9076 H      0
    0.1105   -1.0021    0.5475 C      0
   -0.7818   -0.6342    0.8981 H      0
   -1.2013   -1.9529   -0.1986 Co     0
   -0.3347   -3.6291   -1.6104 P      0
   -1.0334   -3.7697   -3.2729 C      0
   -2.1181   -3.7444   -3.2633 H      0
   -0.7368   -4.7219   -3.7077 H      0
   -0.6578   -3.0014   -3.9417 H      0
    0.4001   -4.9139   -0.5625 C      0
   -0.3505   -5.5367   -0.0847 H      0
    1.0587   -4.5090    0.1983 H      0
    1.0001   -5.5787   -1.1804 H      0
    1.3253   -3.3878   -2.2886 C      0
    1.4592   -2.3911   -2.6983 H      0
    1.5104   -4.1037   -3.0867 H      0
    2.0819   -3.5551   -1.5265 H      0
   -1.9997   -0.9926   -2.2179 P      0
   -0.6490   -0.4524   -3.3083 C      0
    0.1294   -1.2024   -3.3950 H      0
   -0.1926    0.4774   -2.9787 H      0
   -1.0394   -0.2656   -4.3065 H      0
   -2.7930    0.6269   -2.0261 C      0
   -3.8044    0.5261   -1.6453 H      0
   -2.8648    1.1214   -2.9925 H      0
   -2.2400    1.2834   -1.3593 H      0
   -3.6068   -1.7371   -2.5827 C      0
   -3.8713   -1.5436   -3.6202 H      0
   -4.4008   -1.3081   -1.9848 H      0
   -3.6042   -2.8129   -2.4337 H      0
   -2.7289   -1.6213    2.9659 C      0
   -1.7652   -1.3313    2.5608 H      0
   -2.9668   -1.4790    4.3228 C      0
   -2.1898   -1.0840    4.9689 H      0
   -4.3165   -2.7904   -0.6431 H      0
   -1.1790   -4.7456   -1.5891 H      0
   -2.0630   -1.7814   -3.3610 H      0
  1  2  1
  2  3  4
  3  4  1
  3  5  4
  5  6  1
  5  7  4
  7  8  1
  8  9  1
  9 10  4
 10 11  1
 10 12  4
 12 13  1
 12 14  4
 14 15  1
 14 16  4
 16 17  1
 16 18  4
  9 18  4
 18 19  1
  8 20  1
 20 21  4
 21 22  1
 21 23  4
 23 24  1
 23 25  4
 25 26  1
 25 27  4
 27 28  1
 27 29  4
 20 29  4
 29 30  1
 30 31  2
 31 32  1
 32 33  4
 33 34  1
 33 35  4
 35 36  1
 35 37  4
 37 38  1
 37 39  4
 39 40  1
 39 41  4
 32 41  4
 41 42  1
 42 43  1
 30 43  1
 41 43  1
  8 43  1
 43 44  1
 44 45  1
 45 46  1
 45 47  1
 45 48  1
 44 49  1
 49 50  1
 49 51  1
 49 52  1
 44 53  1
 53 54  1
 53 55  1
 53 56  1
 43 57  1
 57 58  1
 58 59  1
 58 60  1
 58 61  1
 57 62  1
 62 63  1
 62 64  1
 62 65  1
 57 66  1
 66 67  1
 66 68  1
 66 69  1
  7 70  4
 70 71  1
 70 72  4
  2 72  4
 72 73  1
  8 74  1
 44 75  1
 57 76  1
M  END
$$$$
