
 OpenBabel09252518113D

 28 28  0  0  0  0  0  0  0  0999 V2000
    1.0779   -0.2097   -0.3586 H   0  0  0  0  0  0  0  0  0  0  0  0
    2.1669   -0.1170   -0.3115 C   0  0  0  0  0  0  0  0  0  0  0  0
    2.8801   -0.4863   -1.5402 C   0  0  0  0  0  0  0  0  0  0  0  0
    2.3814   -0.0602   -2.7327 C   0  0  0  0  0  0  0  0  0  0  0  0
    1.2269    0.7870   -2.7944 C   0  0  0  0  0  0  0  0  0  0  0  0
    0.2892    1.4708   -2.8236 N   0  0  0  0  0  0  0  0  0  0  0  0
    2.9539   -0.3757   -3.9952 C   0  0  0  0  0  0  0  0  0  0  0  0
    3.3998   -0.6210   -5.0391 N   0  0  0  0  0  0  0  0  0  0  0  0
    4.0882   -1.3789   -1.2639 C   0  0  0  0  0  0  0  0  0  0  0  0
    4.8210   -0.8059   -0.6818 H   0  0  0  0  0  0  0  0  0  0  0  0
    3.7507   -2.2009   -0.6162 H   0  0  0  0  0  0  0  0  0  0  0  0
    4.8462   -2.0271   -2.4141 C   0  0  0  0  0  0  0  0  0  0  0  0
    4.1891   -2.6449   -3.0336 H   0  0  0  0  0  0  0  0  0  0  0  0
    5.3441   -1.2770   -3.0355 H   0  0  0  0  0  0  0  0  0  0  0  0
    5.6282   -2.6837   -2.0174 H   0  0  0  0  0  0  0  0  0  0  0  0
    2.6953    0.3798    0.8210 C   0  0  0  0  0  0  0  0  0  0  0  0
    3.7573    0.5451    0.9673 H   0  0  0  0  0  0  0  0  0  0  0  0
    1.7972    0.8095    1.8947 C   0  0  0  0  0  3  0  0  0  0  0  0
    0.9382    1.9992    1.6508 C   0  0  0  0  0  3  0  0  0  0  0  0
    1.3641    2.8376    1.1083 H   0  0  0  0  0  0  0  0  0  0  0  0
   -0.5138    1.8243    1.6177 C   0  0  0  0  0  3  0  0  0  0  0  0
   -1.1051    2.4193    0.9318 H   0  0  0  0  0  0  0  0  0  0  0  0
   -1.0958    0.6207    2.1833 C   0  0  0  0  0  3  0  0  0  0  0  0
   -2.3945    0.3521    1.9544 F   0  0  0  0  0  0  0  0  0  0  0  0
   -0.2501   -0.4196    2.7354 C   0  0  0  0  0  3  0  0  0  0  0  0
   -0.6716   -1.3843    2.9828 H   0  0  0  0  0  0  0  0  0  0  0  0
    1.1917   -0.2131    2.7748 C   0  0  0  0  0  3  0  0  0  0  0  0
    1.7571   -0.5727    3.6268 H   0  0  0  0  0  0  0  0  0  0  0  0
  1  2  1  0  0  0  0
  2  3  1  0  0  0  0
  2 16  2  0  0  0  0
  3  4  2  0  0  0  0
  3  9  1  0  0  0  0
  4  5  1  0  0  0  0
  4  7  1  0  0  0  0
  5  6  3  0  0  0  0
  7  8  3  0  0  0  0
  9 10  1  0  0  0  0
  9 11  1  0  0  0  0
  9 12  1  0  0  0  0
 12 13  1  0  0  0  0
 12 14  1  0  0  0  0
 12 15  1  0  0  0  0
 16 17  1  0  0  0  0
 16 18  1  0  0  0  0
 18 19  1  0  0  0  0
 18 27  1  0  0  0  0
 19 20  1  0  0  0  0
 19 21  1  0  0  0  0
 21 22  1  0  0  0  0
 21 23  1  0  0  0  0
 23 24  1  0  0  0  0
 23 25  1  0  0  0  0
 25 26  1  0  0  0  0
 25 27  1  0  0  0  0
 27 28  1  0  0  0  0
M  END
$$$$
