
     RDKit          3D

  0  0  0  0  0  0  0  0  0  0999 V3000
M  V30 BEGIN CTAB
M  V30 COUNTS 114 121 0 0 0
M  V30 BEGIN ATOM
M  V30 1 C 5.238136 -0.879824 1.445421 0
M  V30 2 C 4.943953 -0.766034 0.078117 0
M  V30 3 C 3.668210 -0.433805 -0.421242 0
M  V30 4 C 3.894886 -0.165803 -1.854992 0
M  V30 5 C 4.696909 -1.308707 -2.498100 0
M  V30 6 C 5.026884 0.954715 -1.886197 0
M  V30 7 C 2.602865 -0.206518 0.498437 0
M  V30 8 N 1.220057 -0.136117 -0.133574 0
M  V30 9 C 0.869488 1.225307 -0.459935 0
M  V30 10 C -0.446920 1.311056 -0.551091 0
M  V30 11 C -0.734635 2.731560 -0.911347 0
M  V30 12 C -1.866067 3.512020 -1.163879 0
M  V30 13 C -1.778037 4.848455 -1.476290 0
M  V30 14 C -0.574365 5.511244 -1.561323 0
M  V30 15 C 0.581951 4.800696 -1.322697 0
M  V30 16 C 1.864791 5.302288 -1.338508 0
M  V30 17 C 2.907161 4.447049 -1.054253 0
M  V30 18 C 2.679514 3.125700 -0.765791 0
M  V30 19 C 1.430691 2.582237 -0.743586 0
M  V30 20 C 0.440070 3.473510 -1.018193 0
M  V30 21 N -1.173039 0.133500 -0.184954 0
M  V30 22 C -2.444524 0.560293 0.469184 0
M  V30 23 C -2.432699 1.253964 1.662843 0
M  V30 24 C -1.272276 1.604729 2.576426 0
M  V30 25 C -1.553766 3.002223 3.221833 0
M  V30 26 C -1.465928 0.728793 3.800910 0
M  V30 27 C -3.553868 1.709861 2.282661 0
M  V30 28 C -4.765313 1.475638 1.705165 0
M  V30 29 C -4.856800 0.798060 0.520825 0
M  V30 30 C -3.700845 0.354305 -0.080628 0
M  V30 31 C -4.054118 -0.148416 -1.385269 0
M  V30 32 C -5.526029 -0.637067 -1.472295 0
M  V30 33 C -4.083737 0.925094 -2.477316 0
M  V30 34 Eu -0.174982 -1.514810 -0.734738 0 VAL=7
M  V30 35 N 1.206195 -1.542497 -2.300857 0
M  V30 36 C 1.395740 -1.355754 -3.446923 0
M  V30 37 S 1.804984 -0.370361 -4.692829 0
M  V30 38 O -1.765591 -2.580532 -0.557459 0
M  V30 39 C -2.669057 -2.826942 0.362128 0
M  V30 40 C -2.251613 -3.362290 -1.608095 0
M  V30 41 C -1.574958 -2.911509 -2.821946 0
M  V30 42 O -1.373247 -1.604106 -2.260137 0
M  V30 43 C -1.238278 -0.834104 -3.365524 0
M  V30 44 O 0.163507 -2.339238 1.066106 0
M  V30 45 C -0.596208 -2.194012 2.116036 0
M  V30 46 C 0.857899 -3.543369 1.417697 0
M  V30 47 C 1.877545 -3.386183 0.355121 0
M  V30 48 O 0.877774 -3.170799 -0.653275 0
M  V30 49 C 0.344096 -4.413140 -0.985461 0
M  V30 50 C 2.989717 -0.330252 1.801518 0
M  V30 51 C 1.964442 0.055033 2.792031 0
M  V30 52 C 2.305771 -0.535847 4.131041 0
M  V30 53 C 2.245818 1.583919 2.994635 0
M  V30 54 C 4.202604 -0.644033 2.308996 0
M  V30 55 H 6.188602 -1.130532 1.852942 0
M  V30 56 H 5.851935 -0.975943 -0.490241 0
M  V30 57 H 3.139237 0.312800 -2.397626 0
M  V30 58 H 4.320134 -1.399362 -3.532307 0
M  V30 59 H 5.770172 -1.155988 -2.473479 0
M  V30 60 H 4.440941 -2.259279 -1.942310 0
M  V30 61 H 5.876787 0.589189 -2.482142 0
M  V30 62 H 4.646853 1.835702 -2.403273 0
M  V30 63 H 5.314926 1.171472 -0.858955 0
M  V30 64 H -2.764309 2.916088 -1.063235 0
M  V30 65 H -2.715261 5.343032 -1.649843 0
M  V30 66 H -0.475275 6.539785 -1.800359 0
M  V30 67 H 1.993760 6.347443 -1.574153 0
M  V30 68 H 3.934255 4.770684 -1.045786 0
M  V30 69 H 3.392998 2.381215 -0.478224 0
M  V30 70 H -0.362453 1.707458 2.101029 0
M  V30 71 H -2.150649 3.562183 2.477484 0
M  V30 72 H -0.572721 3.472357 3.334976 0
M  V30 73 H -2.026415 2.887945 4.202654 0
M  V30 74 H -0.627452 0.064280 3.947095 0
M  V30 75 H -2.389441 0.080375 3.708291 0
M  V30 76 H -1.576849 1.289368 4.755822 0
M  V30 77 H -3.597740 2.254259 3.212106 0
M  V30 78 H -5.663597 1.833335 2.204216 0
M  V30 79 H -5.882051 0.697211 0.199831 0
M  V30 80 H -3.566527 -0.986090 -1.804246 0
M  V30 81 H -5.747431 -1.153076 -0.527625 0
M  V30 82 H -5.633378 -1.319067 -2.350233 0
M  V30 83 H -6.134315 0.261126 -1.651200 0
M  V30 84 H -3.104625 1.286806 -2.766674 0
M  V30 85 H -4.552600 0.479380 -3.377830 0
M  V30 86 H -4.750233 1.756855 -2.181660 0
M  V30 87 H -2.843409 -2.452809 1.317863 0
M  V30 88 H -3.703562 -2.727885 -0.155798 0
M  V30 89 H -2.665090 -3.978991 0.503037 0
M  V30 90 H -3.308333 -3.137156 -1.700780 0
M  V30 91 H -2.174271 -4.447260 -1.378585 0
M  V30 92 H -0.703991 -3.296692 -3.257415 0
M  V30 93 H -2.321176 -2.651193 -3.651444 0
M  V30 94 H -0.976198 0.193846 -3.284298 0
M  V30 95 H -0.734174 -1.372890 -4.168905 0
M  V30 96 H -2.344888 -0.776003 -3.768401 0
M  V30 97 H -1.271230 -1.341138 2.138249 0
M  V30 98 H 0.039512 -2.028953 3.067964 0
M  V30 99 H -1.112238 -3.152519 2.378699 0
M  V30 100 H 1.364837 -3.228674 2.358839 0
M  V30 101 H 0.236805 -4.378488 1.469834 0
M  V30 102 H 2.252017 -4.385263 0.090362 0
M  V30 103 H 2.601523 -2.639935 0.463772 0
M  V30 104 H -0.196165 -4.951007 -0.220106 0
M  V30 105 H 0.040209 -4.587237 -2.010380 0
M  V30 106 H 1.347698 -4.986087 -1.005749 0
M  V30 107 H 0.979032 -0.010777 2.431422 0
M  V30 108 H 1.420565 -0.649624 4.809290 0
M  V30 109 H 2.731576 -1.560028 3.975310 0
M  V30 110 H 3.095595 0.066708 4.610420 0
M  V30 111 H 1.604250 1.980789 3.802321 0
M  V30 112 H 1.986322 2.139039 2.072766 0
M  V30 113 H 3.305887 1.745512 3.189912 0
M  V30 114 H 4.396863 -0.715473 3.358331 0
M  V30 END ATOM
M  V30 BEGIN BOND
M  V30 1 2 1 2
M  V30 2 1 2 3
M  V30 3 1 3 4
M  V30 4 1 4 5
M  V30 5 1 4 6
M  V30 6 2 3 7
M  V30 7 1 7 8
M  V30 8 1 8 9
M  V30 9 2 9 10
M  V30 10 1 10 11
M  V30 11 2 11 12
M  V30 12 1 12 13
M  V30 13 2 13 14
M  V30 14 1 14 15
M  V30 15 2 15 16
M  V30 16 1 16 17
M  V30 17 2 17 18
M  V30 18 1 18 19
M  V30 19 2 19 20
M  V30 20 1 10 21
M  V30 21 1 21 22
M  V30 22 2 22 23
M  V30 23 1 23 24
M  V30 24 1 24 25
M  V30 25 1 24 26
M  V30 26 1 23 27
M  V30 27 2 27 28
M  V30 28 1 28 29
M  V30 29 2 29 30
M  V30 30 1 30 31
M  V30 31 1 31 32
M  V30 32 1 31 33
M  V30 33 1 21 34
M  V30 34 1 34 35
M  V30 35 2 35 36
M  V30 36 2 36 37
M  V30 37 9 38 34
M  V30 38 1 38 39
M  V30 39 1 38 40
M  V30 40 1 40 41
M  V30 41 1 41 42
M  V30 42 1 42 43
M  V30 43 9 44 34
M  V30 44 1 44 45
M  V30 45 1 44 46
M  V30 46 1 46 47
M  V30 47 1 47 48
M  V30 48 1 48 49
M  V30 49 1 7 50
M  V30 50 1 50 51
M  V30 51 1 51 52
M  V30 52 1 51 53
M  V30 53 2 50 54
M  V30 54 1 54 1
M  V30 55 1 34 8
M  V30 56 1 19 9
M  V30 57 1 30 22
M  V30 58 9 42 34
M  V30 59 1 20 11
M  V30 60 9 48 34
M  V30 61 1 20 15
M  V30 62 1 1 55
M  V30 63 1 2 56
M  V30 64 1 4 57
M  V30 65 1 5 58
M  V30 66 1 5 59
M  V30 67 1 5 60
M  V30 68 1 6 61
M  V30 69 1 6 62
M  V30 70 1 6 63
M  V30 71 1 12 64
M  V30 72 1 13 65
M  V30 73 1 14 66
M  V30 74 1 16 67
M  V30 75 1 17 68
M  V30 76 1 18 69
M  V30 77 1 24 70
M  V30 78 1 25 71
M  V30 79 1 25 72
M  V30 80 1 25 73
M  V30 81 1 26 74
M  V30 82 1 26 75
M  V30 83 1 26 76
M  V30 84 1 27 77
M  V30 85 1 28 78
M  V30 86 1 29 79
M  V30 87 1 31 80
M  V30 88 1 32 81
M  V30 89 1 32 82
M  V30 90 1 32 83
M  V30 91 1 33 84
M  V30 92 1 33 85
M  V30 93 1 33 86
M  V30 94 1 39 87
M  V30 95 1 39 88
M  V30 96 1 39 89
M  V30 97 1 40 90
M  V30 98 1 40 91
M  V30 99 1 41 92
M  V30 100 1 41 93
M  V30 101 1 43 94
M  V30 102 1 43 95
M  V30 103 1 43 96
M  V30 104 1 45 97
M  V30 105 1 45 98
M  V30 106 1 45 99
M  V30 107 1 46 100
M  V30 108 1 46 101
M  V30 109 1 47 102
M  V30 110 1 47 103
M  V30 111 1 49 104
M  V30 112 1 49 105
M  V30 113 1 49 106
M  V30 114 1 51 107
M  V30 115 1 52 108
M  V30 116 1 52 109
M  V30 117 1 52 110
M  V30 118 1 53 111
M  V30 119 1 53 112
M  V30 120 1 53 113
M  V30 121 1 54 114
M  V30 END BOND
M  V30 END CTAB
M  END
