
     RDKit          3D

 57 60  0  0  0  0  0  0  0  0999 V2000
   -4.8309   -2.4196   -1.7416 C   0  0  0  0  0  0  0  0  0  0  0  0
   -5.1953   -2.0447   -0.4509 C   0  0  0  0  0  0  0  0  0  0  0  0
   -4.4608   -1.0682    0.2244 C   0  0  0  0  0  0  0  0  0  0  0  0
   -3.3431   -0.4717   -0.3743 C   0  0  0  0  0  0  0  0  0  0  0  0
   -2.6705    0.5793    0.3793 N   0  0  0  0  0  0  0  0  0  0  0  0
   -1.2751    0.8089    0.0202 C   0  0  0  0  0  0  0  0  0  0  0  0
   -0.3301    0.0650    0.6347 C   0  0  0  0  0  0  0  0  0  0  0  0
    1.0652    0.2860    0.4046 C   0  0  0  0  0  0  0  0  0  0  0  0
    2.2415    0.4625    0.2303 C   0  0  0  0  0  0  0  0  0  0  0  0
    3.6454    0.6698    0.0272 C   0  0  0  0  0  0  0  0  0  0  0  0
    4.1102    1.9816   -0.1273 C   0  0  0  0  0  0  0  0  0  0  0  0
    5.4680    2.2255   -0.3250 C   0  0  0  0  0  0  0  0  0  0  0  0
    6.3629    1.1595   -0.3692 C   0  0  0  0  0  0  0  0  0  0  0  0
    5.9051   -0.1532   -0.2146 C   0  0  0  0  0  0  0  0  0  0  0  0
    4.5445   -0.4112   -0.0127 C   0  0  0  0  0  0  0  0  0  0  0  0
    4.0042   -1.6626    0.1449 O   0  0  0  0  0  0  0  0  0  0  0  0
    4.9039   -2.7594    0.2277 C   0  0  0  0  0  0  0  0  0  0  0  0
   -0.5685   -1.2934    1.9467 Si  0  0  0  0  0  4  0  0  0  0  0  0
    1.0444   -1.5902    2.9054 C   0  0  0  0  0  0  0  0  0  0  0  0
   -1.8571   -0.8018    3.2231 C   0  0  0  0  0  0  0  0  0  0  0  0
   -1.0323   -2.9179    1.1266 C   0  0  0  0  0  0  0  0  0  0  0  0
   -1.1084    1.9605   -0.8971 C   0  0  0  0  0  0  0  0  0  0  0  0
   -0.0794    2.2820   -1.7748 C   0  0  0  0  0  0  0  0  0  0  0  0
   -0.1956    3.4166   -2.5922 C   0  0  0  0  0  0  0  0  0  0  0  0
   -1.3456    4.2183   -2.5538 C   0  0  0  0  0  0  0  0  0  0  0  0
   -2.3956    3.8915   -1.7014 C   0  0  0  0  0  0  0  0  0  0  0  0
   -2.2376    2.7737   -0.8961 C   0  0  0  0  0  0  0  0  0  0  0  0
   -3.4476    2.1386    0.1913 S   0  0  0  0  0  6  0  0  0  0  0  0
   -3.3245    2.8789    1.4295 O   0  0  0  0  0  0  0  0  0  0  0  0
   -4.6934    2.0368   -0.5372 O   0  0  0  0  0  0  0  0  0  0  0  0
   -3.0055   -0.8320   -1.6859 C   0  0  0  0  0  0  0  0  0  0  0  0
   -3.7407   -1.8110   -2.3604 C   0  0  0  0  0  0  0  0  0  0  0  0
   -5.4051   -3.1760   -2.2709 H   0  0  0  0  0  0  0  0  0  0  0  0
   -6.0569   -2.5028    0.0277 H   0  0  0  0  0  0  0  0  0  0  0  0
   -4.7673   -0.7708    1.2242 H   0  0  0  0  0  0  0  0  0  0  0  0
    3.4156    2.8179   -0.0903 H   0  0  0  0  0  0  0  0  0  0  0  0
    5.8266    3.2449   -0.4428 H   0  0  0  0  0  0  0  0  0  0  0  0
    7.4227    1.3481   -0.5241 H   0  0  0  0  0  0  0  0  0  0  0  0
    6.6381   -0.9518   -0.2600 H   0  0  0  0  0  0  0  0  0  0  0  0
    5.5975   -2.6412    1.0670 H   0  0  0  0  0  0  0  0  0  0  0  0
    4.3133   -3.6625    0.4099 H   0  0  0  0  0  0  0  0  0  0  0  0
    5.4418   -2.8989   -0.7156 H   0  0  0  0  0  0  0  0  0  0  0  0
    1.8232   -1.9800    2.2438 H   0  0  0  0  0  0  0  0  0  0  0  0
    0.8746   -2.3221    3.7009 H   0  0  0  0  0  0  0  0  0  0  0  0
    1.3971   -0.6607    3.3615 H   0  0  0  0  0  0  0  0  0  0  0  0
   -1.8371   -1.4983    4.0668 H   0  0  0  0  0  0  0  0  0  0  0  0
   -1.6545    0.2021    3.6081 H   0  0  0  0  0  0  0  0  0  0  0  0
   -2.8663   -0.8145    2.8071 H   0  0  0  0  0  0  0  0  0  0  0  0
   -0.3124   -3.1732    0.3432 H   0  0  0  0  0  0  0  0  0  0  0  0
   -2.0263   -2.8731    0.6772 H   0  0  0  0  0  0  0  0  0  0  0  0
   -1.0345   -3.7275    1.8629 H   0  0  0  0  0  0  0  0  0  0  0  0
    0.8068    1.6629   -1.8666 H   0  0  0  0  0  0  0  0  0  0  0  0
    0.6123    3.6696   -3.2763 H   0  0  0  0  0  0  0  0  0  0  0  0
   -1.4211    5.0883   -3.2024 H   0  0  0  0  0  0  0  0  0  0  0  0
   -3.3054    4.4827   -1.6706 H   0  0  0  0  0  0  0  0  0  0  0  0
   -2.1738   -0.3697   -2.2076 H   0  0  0  0  0  0  0  0  0  0  0  0
   -3.4667   -2.0915   -3.3744 H   0  0  0  0  0  0  0  0  0  0  0  0
  1  2  2  0
  2  3  1  0
  3  4  2  0
  4  5  1  0
  5  6  1  0
  6  7  2  0
  7  8  1  0
  8  9  3  0
  9 10  1  0
 10 11  2  0
 11 12  1  0
 12 13  2  0
 13 14  1  0
 14 15  2  0
 15 16  1  0
 16 17  1  0
  7 18  1  0
 18 19  1  0
 18 20  1  0
 18 21  1  0
  6 22  1  0
 22 23  2  0
 23 24  1  0
 24 25  2  0
 25 26  1  0
 26 27  2  0
 27 28  1  0
 28 29  2  0
 28 30  2  0
  4 31  1  0
 31 32  2  0
 32  1  1  0
 28  5  1  0
 15 10  1  0
 27 22  1  0
  1 33  1  0
  2 34  1  0
  3 35  1  0
 11 36  1  0
 12 37  1  0
 13 38  1  0
 14 39  1  0
 17 40  1  0
 17 41  1  0
 17 42  1  0
 19 43  1  0
 19 44  1  0
 19 45  1  0
 20 46  1  0
 20 47  1  0
 20 48  1  0
 21 49  1  0
 21 50  1  0
 21 51  1  0
 23 52  1  0
 24 53  1  0
 25 54  1  0
 26 55  1  0
 31 56  1  0
 32 57  1  0
M  END
