
 OpenBabel09252519393D

 35 38  0  0  1  0  0  0  0  0999 V2000
    2.8214    0.2243    1.0141 H   0  0  0  0  0  0  0  0  0  0  0  0
    2.7945   -0.0123   -0.0440 C   0  0  0  0  0  3  0  0  0  0  0  0
    2.2160   -1.2781   -0.4790 C   0  0  0  0  0  3  0  0  0  0  0  0
    2.0960   -2.0557    0.2629 H   0  0  0  0  0  0  0  0  0  0  0  0
    1.6106   -1.3720   -1.8206 C   0  0  0  0  0  3  0  0  0  0  0  0
    0.2446   -1.6812   -1.8734 N   0  0  0  0  0  0  0  0  0  0  0  0
   -0.6536   -0.5949   -2.1842 C   0  0  0  0  0  0  0  0  0  0  0  0
   -0.5610    0.2417   -3.0672 O   0  0  0  0  0  0  0  0  0  0  0  0
   -1.6442   -0.4966   -1.0645 C   0  0  2  0  0  0  0  0  0  0  0  0
   -0.7485   -0.6555   -0.4278 H   0  0  0  0  0  0  0  0  0  0  0  0
   -2.0371    0.3380    0.1361 C   0  0  0  0  0  0  0  0  0  0  0  0
   -2.7691    1.1153   -0.1094 H   0  0  0  0  0  0  0  0  0  0  0  0
   -1.1917    0.8313    0.6391 H   0  0  0  0  0  0  0  0  0  0  0  0
   -2.6264   -0.8568    0.9600 C   0  0  2  0  0  0  0  0  0  0  0  0
   -3.2221   -0.2652    2.6698 Br  0  0  0  0  0  0  0  0  0  0  0  0
   -1.6109   -1.9559    1.0422 O   0  0  0  0  0  0  0  0  0  0  0  0
   -1.6421   -2.6787   -0.2436 C   0  0  2  0  0  0  0  0  0  0  0  0
   -2.2172   -4.3359    0.0614 Cl  0  0  0  0  0  0  0  0  0  0  0  0
   -0.2753   -2.8377   -1.0434 C   0  0  0  0  0  0  0  0  0  0  0  0
   -0.4260   -3.6114   -1.8106 H   0  0  0  0  0  0  0  0  0  0  0  0
    0.4977   -3.2180   -0.3717 H   0  0  0  0  0  0  0  0  0  0  0  0
   -2.5676   -1.7635   -1.0176 C   0  0  1  0  0  0  0  0  0  0  0  0
   -2.8991   -2.1283   -1.9928 H   0  0  0  0  0  0  0  0  0  0  0  0
   -3.6623   -1.3158   -0.0519 C   0  0  1  0  0  0  0  0  0  0  0  0
   -4.2057   -0.4594   -0.4756 H   0  0  0  0  0  0  0  0  0  0  0  0
   -5.1690   -2.6382    0.5082 I   0  0  0  0  0  0  0  0  0  0  0  0
    2.1632   -0.4743   -2.8395 C   0  0  0  0  0  3  0  0  0  0  0  0
    1.9333   -0.6612   -3.8833 H   0  0  0  0  0  0  0  0  0  0  0  0
    2.7889    0.7880   -2.4403 C   0  0  0  0  0  3  0  0  0  0  0  0
    3.0232    1.8752   -3.4373 C   0  0  0  0  0  0  0  0  0  0  0  0
    4.3454    2.1728   -3.5412 F   0  0  0  0  0  0  0  0  0  0  0  0
    2.5996    1.5591   -4.6877 F   0  0  0  0  0  0  0  0  0  0  0  0
    2.3950    3.0282   -3.0871 F   0  0  0  0  0  0  0  0  0  0  0  0
    3.0669    1.0291   -1.0221 C   0  0  0  0  0  3  0  0  0  0  0  0
    3.2621    2.0403   -0.6786 H   0  0  0  0  0  0  0  0  0  0  0  0
  1  2  1  0  0  0  0
  2  3  1  0  0  0  0
  2 34  1  0  0  0  0
  3  4  1  0  0  0  0
  3  5  1  0  0  0  0
  5 27  1  0  0  0  0
  5  6  1  0  0  0  0
  6  7  1  0  0  0  0
  6 19  1  0  0  0  0
  7  9  1  0  0  0  0
  7  8  2  0  0  0  0
  9 11  1  0  0  0  0
  9 22  1  0  0  0  0
  9 10  1  6  0  0  0
 11 14  1  0  0  0  0
 11 12  1  0  0  0  0
 11 13  1  0  0  0  0
 14 16  1  0  0  0  0
 14 24  1  0  0  0  0
 14 15  1  1  0  0  0
 16 17  1  0  0  0  0
 17 19  1  0  0  0  0
 17 22  1  0  0  0  0
 17 18  1  1  0  0  0
 19 20  1  0  0  0  0
 19 21  1  0  0  0  0
 22 24  1  0  0  0  0
 22 23  1  6  0  0  0
 24 26  1  0  0  0  0
 24 25  1  6  0  0  0
 27 28  1  0  0  0  0
 27 29  1  0  0  0  0
 29 30  1  0  0  0  0
 29 34  1  0  0  0  0
 30 31  1  0  0  0  0
 30 32  1  0  0  0  0
 30 33  1  0  0  0  0
 34 35  1  0  0  0  0
M  END
$$$$
