
  --CCDC--092525    3D                              

 73 75  0  0  0  0  0  0  0  0999 V2000
    0.0748    0.2551   -0.4066 H      0
    0.6988    1.1413   -0.3558 C      0
    1.1475    1.7388   -1.5127 C      0
    0.8732    1.3227   -2.4765 H      0
    1.9453    2.8694   -1.4522 C      0
    2.2782    3.3320   -2.3730 H      0
    2.3148    3.4158   -0.2263 C      0
    3.1810    4.6554   -0.1371 C      0
    3.5552    5.6258   -0.7440 C      0
    3.4281    6.3327   -2.0604 C      0
    3.4625    5.6253   -3.2589 C      0
    3.6307    4.5547   -3.2489 H      0
    3.3081    6.2770   -4.4713 C      0
    3.3291    5.7095   -5.3959 H      0
    3.1335    7.6425   -4.5091 C      0
    3.0118    8.1505   -5.4601 H      0
    3.1183    8.3608   -3.3342 C      0
    2.9888    9.4377   -3.3605 H      0
    3.2663    7.7131   -2.1191 C      0
    3.2546    8.2887   -1.2011 H      0
    4.1034    5.8033    1.0955 Co     3
    3.8526    5.3313    2.9477 N      0
    3.7063    5.0383    4.0449 C      0
    3.4937    4.6434    5.4304 C      0
    2.4511    4.7735    5.7128 H      0
    4.1040    5.2449    6.1009 H      0
    3.7570    3.5982    5.5783 H      0
    5.9330    4.4472    1.6126 P      0
    4.9778    2.9383    1.9195 C      0
    4.3981    2.6717    1.0397 H      0
    4.2996    3.0174    2.7628 H      0
    5.6526    2.1096    2.1234 H      0
    7.2510    4.9653    0.4889 C      0
    6.9426    4.8627   -0.5480 H      0
    7.5673    5.9873    0.6684 H      0
    8.1234    4.3305    0.6288 H      0
    6.7698    4.7090    3.1993 C      0
    6.2024    5.3357    3.8782 H      0
    7.7369    5.1824    3.0486 H      0
    6.9527    3.7555    3.6905 H      0
    2.4343    7.1812    1.8918 P      0
    1.2352    5.8297    1.7708 C      0
    1.0821    5.5363    0.7355 H      0
    0.2718    6.1470    2.1643 H      0
    1.5514    4.9546    2.3335 H      0
    1.7369    8.3760    0.7202 C      0
    0.8517    8.8518    1.1371 H      0
    1.4516    7.8846   -0.2076 H      0
    2.4587    9.1547    0.4832 H      0
    3.2913    8.1274    3.1840 C      0
    3.7399    9.0322    2.7944 H      0
    2.5811    8.4240    3.9530 H      0
    4.0771    7.5663    3.6770 H      0
    5.4569    7.6763    0.8230 P      0
    5.2254    9.4674    0.6680 C      0
    6.0703    9.9111    0.1454 H      0
    5.1379    9.9638    1.6298 H      0
    4.3287    9.6925    0.0955 H      0
    6.1313    7.4136   -0.8389 C      0
    5.9093    6.4255   -1.2261 H      0
    7.2110    7.5479   -0.8384 H      0
    5.7133    8.1370   -1.5348 H      0
    6.4629    7.5812    2.3239 C      0
    7.3753    7.0221    2.1591 H      0
    5.9143    7.1199    3.1416 H      0
    6.7568    8.5803    2.6388 H      0
    1.8432    2.8043    0.9322 C      0
    2.1068    3.2169    1.9004 H      0
    1.0442    1.6752    0.8656 C      0
    0.6891    1.2095    1.7790 H      0
    6.3376    3.4217    0.7497 H      0
    1.7397    6.9780    3.0902 H      0
    4.1202    8.0469    0.9184 H      0
  1  2  1
  2  3  4
  3  4  1
  3  5  4
  5  6  1
  5  7  4
  7  8  1
  8  9  3
  9 10  1
 10 11  4
 11 12  1
 11 13  4
 13 14  1
 13 15  4
 15 16  1
 15 17  4
 17 18  1
 17 19  4
 10 19  4
 19 20  1
  9 21  1
  8 21  1
 21 22  1
 22 23  3
 23 24  1
 24 25  1
 24 26  1
 24 27  1
 21 28  1
 28 29  1
 29 30  1
 29 31  1
 29 32  1
 28 33  1
 33 34  1
 33 35  1
 33 36  1
 28 37  1
 37 38  1
 37 39  1
 37 40  1
 21 41  1
 41 42  1
 42 43  1
 42 44  1
 42 45  1
 41 46  1
 46 47  1
 46 48  1
 46 49  1
 41 50  1
 50 51  1
 50 52  1
 50 53  1
 21 54  1
 54 55  1
 55 56  1
 55 57  1
 55 58  1
 54 59  1
 59 60  1
 59 61  1
 59 62  1
 54 63  1
 63 64  1
 63 65  1
 63 66  1
  7 67  4
 67 68  1
 67 69  4
  2 69  4
 69 70  1
 28 71  1
 41 72  1
 54 73  1
M  CHG  1  21   1
M  END
$$$$
