
 OpenBabel09252516033D

 44 49  0  0  0  0  0  0  0  0999 V2000
    1.0001   -0.0152    0.0988 C   0  0  0  0  0  0  0  0  0  0  0  0
    0.4934   -1.1818    0.9312 C   0  0  0  0  0  0  0  0  0  0  0  0
    0.0442   -1.4003   -0.8747 C   0  0  0  0  0  0  0  0  0  0  0  0
   -0.2474   -2.5129    0.9654 Ir  0  0  0  0  0  0  0  0  0  0  0  0
   -0.1050   -1.6685    3.6163 C   0  0  0  0  0  0  0  0  0  0  0  0
    0.0101   -1.7601    2.2638 C   0  0  0  0  0  0  0  0  0  0  0  0
    0.4419   -3.8152    0.6505 C   0  0  0  0  0  0  0  0  0  0  0  0
    1.7018   -4.2970    0.9049 C   0  0  0  0  0  0  0  0  0  0  0  0
    2.7072   -3.4406    1.6573 C   0  0  0  0  0  0  0  0  0  0  0  0
    1.9492   -3.4882    0.3537 P   0  0  0  0  0  4  0  0  0  0  0  0
    3.2017   -2.1575    0.2566 C   0  0  0  0  0  0  0  0  0  0  0  0
    3.2985   -1.5528    1.4371 F   0  0  0  0  0  0  0  0  0  0  0  0
    4.3797   -2.6806   -0.0715 F   0  0  0  0  0  0  0  0  0  0  0  0
    2.8372   -1.2722   -0.6666 F   0  0  0  0  0  0  0  0  0  0  0  0
    2.4507   -4.7065    1.6238 C   0  0  0  0  0  0  0  0  0  0  0  0
    2.5474   -4.1017    2.8044 F   0  0  0  0  0  0  0  0  0  0  0  0
    1.5404   -5.6736    1.6944 F   0  0  0  0  0  0  0  0  0  0  0  0
    3.6287   -5.2295    1.2958 F   0  0  0  0  0  0  0  0  0  0  0  0
    2.0584   -5.5776    0.4704 C   0  0  0  0  0  0  0  0  0  0  0  0
    1.1207   -6.3591   -0.2098 C   0  0  0  0  0  0  0  0  0  0  0  0
   -0.1418   -5.8703   -0.4541 C   0  0  0  0  0  0  0  0  0  0  0  0
   -0.4971   -4.5902   -0.0274 C   0  0  0  0  0  0  0  0  0  0  0  0
   -1.6962   -3.8891   -0.1577 C   0  0  0  0  0  0  0  0  0  0  0  0
   -1.6347   -2.6643    0.3966 P   0  0  0  0  0  4  0  0  0  0  0  0
   -1.9812   -1.3641   -0.8438 C   0  0  0  0  0  0  0  0  0  0  0  0
   -3.2052   -1.5353   -1.3353 F   0  0  0  0  0  0  0  0  0  0  0  0
   -1.8980   -0.1683   -0.2677 F   0  0  0  0  0  0  0  0  0  0  0  0
   -1.0923   -1.4440   -1.8299 F   0  0  0  0  0  0  0  0  0  0  0  0
   -2.8814   -2.5116    1.7275 C   0  0  0  0  0  0  0  0  0  0  0  0
   -2.6772   -3.4602    2.6371 F   0  0  0  0  0  0  0  0  0  0  0  0
   -2.7733   -1.3166    2.3012 F   0  0  0  0  0  0  0  0  0  0  0  0
   -4.0997   -2.6471    1.2114 F   0  0  0  0  0  0  0  0  0  0  0  0
    0.6434    0.9028    0.5170 H   0  0  0  0  0  0  0  0  0  0  0  0
    0.6434   -0.1121   -0.9053 H   0  0  0  0  0  0  0  0  0  0  0  0
    2.0701   -0.0152    0.0988 H   0  0  0  0  0  0  0  0  0  0  0  0
   -0.3378   -1.7834   -1.7979 H   0  0  0  0  0  0  0  0  0  0  0  0
   -0.6004   -2.4423    4.1647 H   0  0  0  0  0  0  0  0  0  0  0  0
    2.3205   -3.2053    2.6268 H   0  0  0  0  0  0  0  0  0  0  0  0
    3.6267   -3.9779    1.7608 H   0  0  0  0  0  0  0  0  0  0  0  0
    3.0416   -5.9560    0.6574 H   0  0  0  0  0  0  0  0  0  0  0  0
    1.3856   -7.3412   -0.5417 H   0  0  0  0  0  0  0  0  0  0  0  0
   -0.8552   -6.4749   -0.9742 H   0  0  0  0  0  0  0  0  0  0  0  0
   -1.8916   -3.7661   -1.2025 H   0  0  0  0  0  0  0  0  0  0  0  0
   -2.4739   -4.4454    0.3226 H   0  0  0  0  0  0  0  0  0  0  0  0
  1  2  1  0  0  0  0
  1 33  1  0  0  0  0
  1 34  1  0  0  0  0
  1 35  1  0  0  0  0
  2  3  2  0  0  0  0
  2  4  1  0  0  0  0
  2  6  1  0  0  0  0
  3  4  1  0  0  0  0
  3 36  1  0  0  0  0
  4  5  1  0  0  0  0
  4  6  1  0  0  0  0
  4  7  1  0  0  0  0
  4 10  1  0  0  0  0
  4 24  1  0  0  0  0
  5  6  2  0  0  0  0
  5 37  1  0  0  0  0
  7  8  1  0  0  0  0
  7 22  2  0  0  0  0
  8  9  1  0  0  0  0
  8 19  2  0  0  0  0
  9 10  1  0  0  0  0
  9 38  1  0  0  0  0
  9 39  1  0  0  0  0
 10 11  1  0  0  0  0
 10 15  1  0  0  0  0
 11 12  1  0  0  0  0
 11 13  1  0  0  0  0
 11 14  1  0  0  0  0
 15 16  1  0  0  0  0
 15 17  1  0  0  0  0
 15 18  1  0  0  0  0
 19 20  1  0  0  0  0
 19 40  1  0  0  0  0
 20 21  2  0  0  0  0
 20 41  1  0  0  0  0
 21 22  1  0  0  0  0
 21 42  1  0  0  0  0
 22 23  1  0  0  0  0
 23 24  1  0  0  0  0
 23 43  1  0  0  0  0
 23 44  1  0  0  0  0
 24 25  1  0  0  0  0
 24 29  1  0  0  0  0
 25 26  1  0  0  0  0
 25 27  1  0  0  0  0
 25 28  1  0  0  0  0
 29 30  1  0  0  0  0
 29 31  1  0  0  0  0
 29 32  1  0  0  0  0
M  END
$$$$
