
  --CCDC--092525    3D                              

 53 64  0  0  0  0  0  0  0  0999 V2000
   -0.6162    2.6986   -0.7974 C      0
    0.6864    2.1806   -1.2067 C      0
    1.6982    1.6824   -1.4021 N      0
    3.4130    0.4326   -1.6756 Ru     3
    2.4816    0.6541    0.8553 Br     0
    3.7439   -1.6376    0.9833 Ru     0
    2.0042   -2.7910    1.4791 C      0
    1.0905   -3.4252    1.7395 O      0
    2.8166   -1.3179    2.8861 N      0
    2.3913   -0.8863    3.8552 C      0
    1.9666   -0.1350    5.0351 C      0
    5.6405   -1.1583    1.3183 C      0
    4.8831   -0.4273   -0.0286 C      0
    3.9361   -1.5752   -0.9563 C      0
    2.9784   -1.8148   -2.2132 C      0
    2.8889   -3.2804   -2.6470 C      0
    1.5959   -1.4059   -2.7903 C      0
    3.8671   -0.9603   -3.0327 C      0
    3.6083    0.5705   -3.6739 C      0
    4.4754    1.7157   -2.8046 C      0
    5.4303    0.8438   -1.7632 C      0
    5.0792   -0.7819   -1.9414 C      0
    5.6611   -2.1281   -1.3316 C      0
    5.9738   -3.0700   -2.4993 C      0
    7.1634   -2.0291   -0.9923 C      0
    4.7056   -2.8719   -0.3552 C      0
    5.3730   -2.7838    1.1696 C      0
    1.7370   -0.4370   -0.6284 C      0
    0.7846   -0.8432   -0.1432 O      0
   -0.8343    3.6608   -1.2570 H      0
   -0.6403    2.8206    0.2839 H      0
   -1.4176    2.0060   -1.0549 H      0
    0.8880   -0.0004    5.0583 H      0
    2.4084    0.8611    5.0545 H      0
    2.2752   -0.6267    5.9516 H      0
    5.5610   -0.6737    2.3030 H      0
    4.4243    0.5156    0.3329 H      0
    1.8986   -3.4820   -3.0473 H      0
    3.0459   -3.9824   -1.8312 H      0
    3.5949   -3.4936   -3.4424 H      0
    1.5786   -1.7401   -3.8268 H      0
    1.3488   -0.3481   -2.8757 H      0
    0.7776   -1.9191   -2.2849 H      0
    4.4813    0.4206   -4.3285 H      0
    5.2469    1.6234   -3.5847 H      0
    6.1873    0.7191   -2.5576 H      0
    5.2953   -3.9107   -2.5343 H      0
    6.9636   -3.5080   -2.3909 H      0
    5.9506   -2.5422   -3.4518 H      0
    7.7230   -1.8285   -1.9039 H      0
    7.5363   -2.9657   -0.5791 H      0
    7.4112   -1.2225   -0.3076 H      0
    5.0492   -3.4175    2.0097 H      0
  1  2  1
  2  3  3
  3  4  1
  4  5  1
  5  6  1
  6  7  1
  7  8  3
  6  9  1
  9 10  3
 10 11  1
  6 12  1
 12 13  1
  6 13  1
 13 14  1
  6 14  1
 14 15  1
 15 16  1
 15 17  1
 15 18  1
  4 18  1
 18 19  1
  4 19  1
 19 20  1
  4 20  1
 20 21  1
  4 21  1
 21 22  1
  4 22  1
 18 22  1
 22 23  1
 23 24  1
 23 25  1
 23 26  1
  6 26  1
 14 26  1
 26 27  1
  6 27  1
 12 27  1
  4 28  1
 28 29  3
  1 30  1
  1 31  1
  1 32  1
 11 33  1
 11 34  1
 11 35  1
 12 36  1
 13 37  1
 16 38  1
 16 39  1
 16 40  1
 17 41  1
 17 42  1
 17 43  1
 19 44  1
 20 45  1
 21 46  1
 24 47  1
 24 48  1
 24 49  1
 25 50  1
 25 51  1
 25 52  1
 27 53  1
M  CHG  1   4   1
M  END
$$$$
