
  --CCDC--092525    3D                              

 87103  0  0  0  0  0  0  0  0999 V2000
   -1.3795    6.3595    1.7940 H      0
   -0.6568    5.6135    1.4677 C      0
   -1.0209    4.6233    0.5914 C      0
   -2.0308    4.6092    0.1916 H      0
   -0.1359    3.6147    0.2372 C      0
   -0.5501    2.8863   -0.4315 H      0
    1.1750    3.5425    0.7455 C      0
    2.4228    2.1814    0.6073 P      3
    3.3408    2.2620    2.2229 C      0
    4.6728    1.9302    2.5318 C      0
    5.3202    1.4375    1.8264 H      0
    5.2531    2.2206    3.7553 C      0
    6.3132    2.0423    3.9123 H      0
    4.4999    2.7095    4.7914 C      0
    4.9610    2.9121    5.7531 H      0
    3.1611    2.9299    4.5887 C      0
    2.5496    3.3001    5.4091 H      0
    2.6054    2.6828    3.3432 C      0
    1.5375    2.8244    3.2332 H      0
    3.6095    1.9118   -1.6463 Ru     0
    2.0742    1.0237   -1.7447 H      0
    1.9198   -0.1035   -0.3899 Ru     0
    4.2906    0.2263    0.0001 Cl     0
   -0.0520   -0.1873   -0.5842 C      0
   -0.1893    0.8972   -1.6144 C      0
   -1.2071    1.2761   -1.6025 H      0
    0.0046    0.5030   -2.6063 H      0
    0.4733    1.7241   -1.4164 H      0
    0.4896   -0.3304    0.9320 C      0
    0.6769    0.6291    2.1427 C      0
    1.6693    0.5944    2.5501 H      0
    0.0252    0.2947    2.9468 H      0
    0.3437    1.6375    1.9466 H      0
    1.7498   -1.3441    1.1014 C      0
    3.0574   -1.2497    1.9843 C      0
    3.3739   -0.2363    2.1913 H      0
    3.8987   -1.8358    1.6437 H      0
    2.8121   -1.6632    2.9632 H      0
    2.3521   -2.0383   -0.2129 C      0
    3.7509   -2.4216   -0.7286 C      0
    3.7431   -3.4672   -1.0301 H      0
    4.5525   -2.3100   -0.0057 H      0
    3.9888   -1.8413   -1.6104 H      0
    1.5602   -1.7877   -1.4841 C      0
    1.7918   -2.1360   -2.9394 C      0
    1.3817   -3.1230   -3.1445 H      0
    2.8481   -2.1382   -3.2041 H      0
    1.2790   -1.4281   -3.5905 H      0
    0.3955   -1.5645   -0.8346 C      0
    0.6372   -2.8782    0.0670 C      0
    1.4852   -3.5523   -0.0746 H      0
   -0.1462   -3.5186   -0.3287 H      0
    0.3213   -2.8520    1.1076 H      0
    5.2635    1.6304   -2.7929 C      0
    5.2831    0.4625   -1.7944 C      0
    4.5339    0.6562   -1.0560 H      0
    6.2816    0.4044   -1.3551 H      0
    5.1873   -0.5083   -2.2836 H      0
    5.5860    2.6857   -1.7795 C      0
    6.1001    2.6271   -0.3111 C      0
    5.2455    2.5530    0.3358 H      0
    6.6519    3.5285   -0.0501 H      0
    6.7445    1.7769   -0.1129 H      0
    4.6090    3.7201   -1.4331 C      0
    4.1866    4.5851   -0.2042 C      0
    5.0582    5.1630    0.0914 H      0
    3.9422    4.0112    0.6647 H      0
    3.4097    5.3139   -0.4144 H      0
    3.4659    3.8629   -2.3116 C      0
    1.9680    4.2444   -2.0987 C      0
    1.5526    4.6324   -3.0270 H      0
    1.8231    5.0105   -1.3423 H      0
    1.3823    3.3853   -1.7976 H      0
    3.1611    2.9174   -3.4308 C      0
    1.8134    2.3272   -4.0108 C      0
    1.9382    1.6812   -4.8803 H      0
    1.2420    3.1705   -4.3889 H      0
    1.1799    1.8910   -3.2562 H      0
    4.0016    1.7565   -3.6120 C      0
    3.2312    0.4212   -3.2943 C      0
    2.1887    0.3297   -3.5533 H      0
    3.3499   -0.0949   -2.3654 H      0
    3.6752   -0.2809   -3.9938 H      0
    1.5441    4.6614    1.5036 C      0
    2.5595    4.7367    1.8707 H      0
    0.6453    5.6400    1.9018 C      0
    0.9581    6.4183    2.5901 H      0
  1  2  1
  2  3  4
  3  4  1
  3  5  4
  5  6  1
  5  7  4
  7  8  1
  8  9  1
  9 10  4
 10 11  1
 10 12  4
 12 13  1
 12 14  4
 14 15  1
 14 16  4
 16 17  1
 16 18  4
  9 18  4
 18 19  1
  8 20  1
 20 21  1
 21 22  1
  8 22  1
 20 22  1
 22 23  1
 20 23  1
 22 24  1
 24 25  1
 25 26  1
 25 27  1
 25 28  1
 24 29  4
 22 29  1
 29 30  1
 30 31  1
 30 32  1
 30 33  1
 29 34  4
 22 34  1
 34 35  1
 35 36  1
 35 37  1
 35 38  1
 34 39  4
 22 39  1
 39 40  1
 40 41  1
 40 42  1
 40 43  1
 39 44  4
 22 44  1
 44 45  1
 45 46  1
 45 47  1
 45 48  1
 44 49  4
 24 49  4
 22 49  1
 49 50  1
 50 51  1
 50 52  1
 50 53  1
 20 54  1
 54 55  1
 55 56  1
 55 57  1
 55 58  1
 54 59  4
 20 59  1
 59 60  1
 60 61  1
 60 62  1
 60 63  1
 59 64  4
 20 64  1
 64 65  1
 65 66  1
 65 67  1
 65 68  1
 64 69  4
 20 69  1
 69 70  1
 70 71  1
 70 72  1
 70 73  1
 69 74  4
 20 74  1
 74 75  1
 75 76  1
 75 77  1
 75 78  1
 74 79  4
 54 79  4
 20 79  1
 79 80  1
 80 81  1
 80 82  1
 80 83  1
  7 84  4
 84 85  1
 84 86  4
  2 86  4
 86 87  1
M  CHG  1   8   1
M  END
$$$$
