
     RDKit          3D

  0  0  0  0  0  0  0  0  0  0999 V3000
M  V30 BEGIN CTAB
M  V30 COUNTS 43 45 0 0 0
M  V30 BEGIN ATOM
M  V30 1 C 2.458994 2.475904 1.306390 0
M  V30 2 C 2.586642 2.210379 -0.041306 0
M  V30 3 C 2.350359 0.951151 -0.539636 0
M  V30 4 C 1.970123 -0.127816 0.277583 0
M  V30 5 C 1.783507 -1.377489 -0.480032 0 CFG=1
M  V30 6 C 1.769628 -2.640587 0.329596 0
M  V30 7 N 1.059230 -1.357774 -1.674256 0
M  V30 8 Pt -0.834675 -1.103000 -1.945912 0 CFG=1 VAL=4
M  V30 9 N -2.849918 -0.725155 -2.250715 0
M  V30 10 C -3.247773 -0.010871 -3.210980 0
M  V30 11 O -3.669419 0.266415 -4.341700 0
M  V30 12 C -0.844366 0.919017 -1.120764 0
M  V30 13 C -0.627447 2.258425 -1.330604 0
M  V30 14 C -0.984676 3.059210 -0.282014 0
M  V30 15 C -1.514898 2.563513 0.879945 0
M  V30 16 C -1.755100 1.239598 1.154877 0
M  V30 17 C -1.398148 0.370773 0.097139 0
M  V30 18 C -1.561436 -1.090468 0.528502 0 CFG=1
M  V30 19 C -2.614240 -1.271064 1.556098 0
M  V30 20 N -1.457316 -2.233658 -0.340030 0
M  V30 21 C 1.855703 0.186756 1.616476 0
M  V30 22 C 2.086934 1.428564 2.120663 0
M  V30 23 H 2.633941 3.443084 1.733738 0
M  V30 24 H 2.880715 3.066278 -0.634868 0
M  V30 25 H 2.497040 0.922014 -1.611446 0
M  V30 26 H 2.884169 -1.482488 -0.903569 0
M  V30 27 H 1.486069 -3.453186 -0.396565 0
M  V30 28 H 2.804761 -2.977383 0.661338 0
M  V30 29 H 1.181975 -2.673567 1.225752 0
M  V30 30 H 1.564851 -0.699610 -2.370799 0
M  V30 31 H 1.324374 -2.296843 -2.144858 0
M  V30 32 H -0.236745 2.108171 -2.310236 0
M  V30 33 H -0.736687 4.042142 -0.648642 0
M  V30 34 H -1.732790 3.345756 1.584487 0
M  V30 35 H -2.165974 0.944538 2.076916 0
M  V30 36 H -0.575069 -1.183850 1.153184 0
M  V30 37 H -2.891833 -2.344705 1.552035 0
M  V30 38 H -2.252472 -1.047631 2.563115 0
M  V30 39 H -3.546835 -0.712506 1.304971 0
M  V30 40 H -2.365062 -2.781283 -0.494100 0
M  V30 41 H -0.825308 -3.011690 -0.025570 0
M  V30 42 H 1.556839 -0.704932 2.182864 0
M  V30 43 H 1.952332 1.505867 3.192934 0
M  V30 END ATOM
M  V30 BEGIN BOND
M  V30 1 2 1 2
M  V30 2 1 2 3
M  V30 3 2 3 4
M  V30 4 1 4 5
M  V30 5 1 5 6
M  V30 6 1 5 7
M  V30 7 9 7 8
M  V30 8 1 8 9
M  V30 9 2 9 10
M  V30 10 2 10 11
M  V30 11 1 8 12
M  V30 12 2 12 13
M  V30 13 1 13 14
M  V30 14 2 14 15
M  V30 15 1 15 16
M  V30 16 2 16 17
M  V30 17 1 17 18
M  V30 18 1 18 19
M  V30 19 1 18 20
M  V30 20 1 4 21
M  V30 21 2 21 22
M  V30 22 1 22 1
M  V30 23 9 20 8
M  V30 24 1 17 12
M  V30 25 1 1 23
M  V30 26 1 2 24
M  V30 27 1 3 25
M  V30 28 1 5 26 CFG=3
M  V30 29 1 6 27
M  V30 30 1 6 28
M  V30 31 1 6 29
M  V30 32 1 7 30
M  V30 33 1 7 31
M  V30 34 1 13 32
M  V30 35 1 14 33
M  V30 36 1 15 34
M  V30 37 1 16 35
M  V30 38 1 18 36 CFG=1
M  V30 39 1 19 37
M  V30 40 1 19 38
M  V30 41 1 19 39
M  V30 42 1 20 40
M  V30 43 1 20 41
M  V30 44 1 21 42
M  V30 45 1 22 43
M  V30 END BOND
M  V30 END CTAB
M  END
