
  --CCDC--092525    3D                              

 73 77  0  0  0  0  0  0  0  0999 V2000
    1.6012    3.0233    2.2824 Cl     0
    2.1234    2.9748   -0.0594 Ir     0
    0.0602    2.7511   -0.3471 N      0
   -0.6073    3.8297   -0.8355 C      0
   -0.0941    4.7559   -1.8240 C      0
    1.1953    4.6848   -2.6064 C      0
    2.0290    3.0921   -2.5071 P      0
    0.9400    1.9052   -3.3450 C      0
    0.2761    2.5750   -4.5495 C      0
    1.6530    0.6552   -3.8662 C      0
    3.6477    3.2081   -3.3089 C      0
    3.5065    3.4808   -4.8064 C      0
    4.4790    4.3172   -2.6643 C      0
   -0.8406    5.8585   -2.1531 C      0
   -2.0738    6.1262   -1.5948 C      0
   -2.6093    5.2641   -0.6953 C      0
   -1.9046    4.0984   -0.3185 C      0
   -2.4722    3.1981    0.5669 C      0
   -1.8662    1.9842    0.8341 C      0
   -2.5002    1.0116    1.6409 C      0
   -1.9427   -0.2170    1.7931 C      0
   -0.7792   -0.5324    1.1194 C      0
   -0.1103    0.3751    0.3386 C      0
    1.0388   -0.1737   -0.4609 C      0
    2.6176    0.5703   -0.0062 P      0
    3.8688    0.1531   -1.2498 C      0
    3.9059   -1.3564   -1.4880 C      0
    5.2688    0.6347   -0.8720 C      0
    3.1948   -0.0882    1.5863 C      0
    2.0562   -0.3772    2.5645 C      0
    4.2352    0.8005    2.2748 C      0
   -0.5972    1.7274    0.2546 C      0
    3.7502    3.0600    0.1303 H      0
    2.1538    4.6141   -0.0245 H      0
    0.9950    4.9215   -3.6587 H      0
    1.8726    5.4574   -2.2223 H      0
    0.1394    1.6055   -2.6511 H      0
   -0.3530    1.8648   -5.0820 H      0
    1.0200    2.9536   -5.2464 H      0
   -0.3513    3.4070   -4.2379 H      0
    2.5219    0.9262   -4.4621 H      0
    0.9819    0.0771   -4.4981 H      0
    1.9788    0.0038   -3.0619 H      0
    4.1798    2.2538   -3.1783 H      0
    3.0305    2.6417   -5.3087 H      0
    4.4823    3.6353   -5.2622 H      0
    2.9055    4.3704   -4.9828 H      0
    3.9888    5.2819   -2.7774 H      0
    5.4621    4.3804   -3.1262 H      0
    4.6154    4.1288   -1.6015 H      0
   -0.4430    6.5524   -2.8864 H      0
   -2.6174    7.0206   -1.8807 H      0
   -3.5861    5.4665   -0.2684 H      0
   -3.4304    3.4278    1.0210 H      0
   -3.4418    1.2427    2.1280 H      0
   -2.4231   -0.9573    2.4243 H      0
   -0.3835   -1.5390    1.2047 H      0
    1.0938   -1.2636   -0.3489 H      0
    0.8288    0.0403   -1.5133 H      0
    3.6022    0.6526   -2.1900 H      0
    2.9318   -1.7205   -1.8078 H      0
    4.1827   -1.8839   -0.5775 H      0
    4.6314   -1.6075   -2.2589 H      0
    5.7188   -0.0264   -0.1354 H      0
    5.2368    1.6415   -0.4608 H      0
    5.9170    0.6461   -1.7458 H      0
    3.6739   -1.0578    1.3800 H      0
    1.5893   -1.3297    2.3285 H      0
    1.2923    0.3940    2.5397 H      0
    2.4373   -0.4426    3.5815 H      0
    3.9721    1.8511    2.2038 H      0
    5.2236    0.6791    1.8433 H      0
    4.3043    0.5487    3.3310 H      0
  1  2  1
  2  3  1
  3  4  4
  4  5  4
  5  6  1
  6  7  1
  2  7  1
  7  8  1
  8  9  1
  8 10  1
  7 11  1
 11 12  1
 11 13  1
  5 14  4
 14 15  4
 15 16  4
 16 17  4
  4 17  4
 17 18  4
 18 19  4
 19 20  4
 20 21  4
 21 22  4
 22 23  4
 23 24  1
 24 25  1
  2 25  1
 25 26  1
 26 27  1
 26 28  1
 25 29  1
 29 30  1
 29 31  1
 23 32  4
  3 32  4
 19 32  4
  2 33  1
  2 34  1
  6 35  1
  6 36  1
  8 37  1
  9 38  1
  9 39  1
  9 40  1
 10 41  1
 10 42  1
 10 43  1
 11 44  1
 12 45  1
 12 46  1
 12 47  1
 13 48  1
 13 49  1
 13 50  1
 14 51  1
 15 52  1
 16 53  1
 18 54  1
 20 55  1
 21 56  1
 22 57  1
 24 58  1
 24 59  1
 26 60  1
 27 61  1
 27 62  1
 27 63  1
 28 64  1
 28 65  1
 28 66  1
 29 67  1
 30 68  1
 30 69  1
 30 70  1
 31 71  1
 31 72  1
 31 73  1
M  END
$$$$
