
     RDKit          3D

 26 26  0  0  0  0  0  0  0  0999 V2000
   -3.2844    1.3083   -0.6833 C   0  0  0  0  0  0  0  0  0  0  0  0
   -2.8578   -0.0938   -0.2638 C   0  0  0  0  0  0  0  0  0  0  0  0
   -3.6252   -0.5440    0.9733 C   0  0  0  0  0  0  0  0  0  0  0  0
   -1.4600   -0.0883    0.0835 O   0  0  0  0  0  0  0  0  0  0  0  0
   -0.5891   -0.2244   -0.9460 C   0  0  0  0  0  0  0  0  0  0  0  0
   -0.8796   -0.3505   -2.1243 O   0  0  0  0  0  0  0  0  0  0  0  0
    0.8145   -0.1988   -0.4482 C   0  0  0  0  0  0  0  0  0  0  0  0
    1.1292   -0.0529    0.9118 C   0  0  0  0  0  0  0  0  0  0  0  0
    2.4645   -0.0344    1.3308 C   0  0  0  0  0  0  0  0  0  0  0  0
    3.4902   -0.1626    0.3841 C   0  0  0  0  0  0  0  0  0  0  0  0
    3.1881   -0.3088   -0.9759 C   0  0  0  0  0  0  0  0  0  0  0  0
    1.8510   -0.3263   -1.3864 C   0  0  0  0  0  0  0  0  0  0  0  0
    4.8923   -0.1435    0.8218 N   0  0  0  0  0  0  0  0  0  0  0  0
    5.1150   -0.0123    2.0336 O   0  0  0  0  0  0  0  0  0  0  0  0
    5.7685   -0.2597   -0.0465 O   0  0  0  0  0  0  0  0  0  0  0  0
   -4.3552    1.3465   -0.9059 H   0  0  0  0  0  0  0  0  0  0  0  0
   -2.7363    1.6331   -1.5736 H   0  0  0  0  0  0  0  0  0  0  0  0
   -3.0626    2.0369    0.1043 H   0  0  0  0  0  0  0  0  0  0  0  0
   -3.0498   -0.8104   -1.0718 H   0  0  0  0  0  0  0  0  0  0  0  0
   -4.7027   -0.5728    0.7850 H   0  0  0  0  0  0  0  0  0  0  0  0
   -3.4334    0.1239    1.8204 H   0  0  0  0  0  0  0  0  0  0  0  0
   -3.2979   -1.5431    1.2810 H   0  0  0  0  0  0  0  0  0  0  0  0
    0.3440    0.0478    1.6587 H   0  0  0  0  0  0  0  0  0  0  0  0
    2.6848    0.0799    2.3909 H   0  0  0  0  0  0  0  0  0  0  0  0
    3.9727   -0.4095   -1.7237 H   0  0  0  0  0  0  0  0  0  0  0  0
    1.6193   -0.4401   -2.4452 H   0  0  0  0  0  0  0  0  0  0  0  0
  1  2  1  0
  2  3  1  0
  2  4  1  0
  4  5  1  0
  5  6  2  0
  5  7  1  0
  7  8  2  0
  8  9  1  0
  9 10  2  0
 10 11  1  0
 11 12  2  0
 10 13  1  0
 13 14  1  0
 13 15  2  0
 12  7  1  0
  1 16  1  0
  1 17  1  0
  1 18  1  0
  2 19  1  0
  3 20  1  0
  3 21  1  0
  3 22  1  0
  8 23  1  0
  9 24  1  0
 11 25  1  0
 12 26  1  0
M  CHG  2  13   1  14  -1
M  END
