
     RDKit          3D

  0  0  0  0  0  0  0  0  0  0999 V3000
M  V30 BEGIN CTAB
M  V30 COUNTS 43 45 0 0 0
M  V30 BEGIN ATOM
M  V30 1 C 5.014446 1.693676 -0.145626 0
M  V30 2 C 5.168330 0.845118 -1.225597 0
M  V30 3 C 4.080347 -0.002795 -1.462636 0
M  V30 4 C 2.936694 -0.008610 -0.694461 0
M  V30 5 C 1.807022 -0.936470 -0.995349 0 CFG=1
M  V30 6 C 1.927622 -2.039522 0.057438 0
M  V30 7 N 0.515388 -0.292185 -0.943326 0
M  V30 8 Pt -0.384183 -0.574240 0.871890 0 CFG=2 VAL=4
M  V30 9 N -1.426134 -0.757485 2.602014 0
M  V30 10 C -1.407931 -1.836974 3.270341 0
M  V30 11 O -1.047160 -2.720342 4.059453 0
M  V30 12 C -1.512074 1.282388 0.504665 0
M  V30 13 C -1.486868 2.629727 0.576254 0
M  V30 14 C -2.595926 3.250761 0.069138 0
M  V30 15 C -3.632543 2.525117 -0.462564 0
M  V30 16 C -3.711790 1.154540 -0.559769 0
M  V30 17 C -2.581124 0.483406 -0.042662 0
M  V30 18 C -2.743113 -1.039259 -0.083987 0 CFG=1
M  V30 19 C -3.740494 -1.479840 -1.088858 0
M  V30 20 N -1.678639 -1.999405 0.033536 0
M  V30 21 C 2.827185 0.867329 0.386879 0
M  V30 22 C 3.884644 1.714525 0.644314 0
M  V30 23 H 5.868169 2.362243 0.043042 0
M  V30 24 H 6.052073 0.825353 -1.847168 0
M  V30 25 H 4.117279 -0.705105 -2.295227 0
M  V30 26 H 1.982177 -1.346459 -1.998208 0
M  V30 27 H 2.978781 -2.397592 -0.019404 0
M  V30 28 H 1.871671 -1.539590 1.062075 0
M  V30 29 H 1.172357 -2.815427 -0.071102 0
M  V30 30 H 0.586156 0.715330 -1.207298 0
M  V30 31 H -0.077890 -0.745423 -1.677482 0
M  V30 32 H -0.519040 2.690137 1.044423 0
M  V30 33 H -2.395978 4.289046 0.210917 0
M  V30 34 H -4.424718 3.156643 -0.817688 0
M  V30 35 H -4.595767 0.774423 -1.001162 0
M  V30 36 H -3.299074 -1.180558 0.934160 0
M  V30 37 H -3.522122 -2.474721 -1.528829 0
M  V30 38 H -4.783657 -1.555655 -0.717009 0
M  V30 39 H -3.777575 -0.796867 -1.983784 0
M  V30 40 H -1.327562 -2.489506 -0.805688 0
M  V30 41 H -1.877954 -2.809575 0.692788 0
M  V30 42 H 1.963138 0.900623 1.009831 0
M  V30 43 H 3.795837 2.383223 1.474720 0
M  V30 END ATOM
M  V30 BEGIN BOND
M  V30 1 2 1 2
M  V30 2 1 2 3
M  V30 3 2 3 4
M  V30 4 1 4 5
M  V30 5 1 5 6
M  V30 6 1 5 7
M  V30 7 9 7 8
M  V30 8 1 8 9
M  V30 9 2 9 10
M  V30 10 2 10 11
M  V30 11 1 8 12
M  V30 12 2 12 13
M  V30 13 1 13 14
M  V30 14 2 14 15
M  V30 15 1 15 16
M  V30 16 2 16 17
M  V30 17 1 17 18
M  V30 18 1 18 19
M  V30 19 1 18 20
M  V30 20 1 4 21
M  V30 21 2 21 22
M  V30 22 1 22 1
M  V30 23 9 20 8
M  V30 24 1 17 12
M  V30 25 1 1 23
M  V30 26 1 2 24
M  V30 27 1 3 25
M  V30 28 1 5 26 CFG=3
M  V30 29 1 6 27
M  V30 30 1 6 28
M  V30 31 1 6 29
M  V30 32 1 7 30
M  V30 33 1 7 31
M  V30 34 1 13 32
M  V30 35 1 14 33
M  V30 36 1 15 34
M  V30 37 1 16 35
M  V30 38 1 18 36 CFG=1
M  V30 39 1 19 37
M  V30 40 1 19 38
M  V30 41 1 19 39
M  V30 42 1 20 40
M  V30 43 1 20 41
M  V30 44 1 21 42
M  V30 45 1 22 43
M  V30 END BOND
M  V30 END CTAB
M  END
