
  --CCDC--092525    3D                              

 62 63  0  0  0  0  0  0  0  0999 V2000
    0.1109    0.1443    0.0014 C      0
    1.9983    0.0121   -0.7615 Pt     0
    2.5138    1.7562    0.1626 C      0
    2.5169   -1.0737    0.8861 C      0
    1.4556    1.1053   -2.3956 N      0
    0.5004    0.7067   -3.2782 N      0
    0.3955    1.7222   -4.1121 C      0
   -0.5324    1.6404   -5.2821 C      0
    0.1654    1.2213   -6.5675 C      0
    1.5173    1.8396   -6.8442 C      0
    1.5561    3.3797   -6.8729 C      0
    2.3009    4.0014   -5.7195 C      0
    1.6198    4.0622   -4.3609 C      0
    1.2947    2.7346   -3.7242 C      0
    1.9545    2.3450   -2.6520 N      0
    1.3411   -1.9939   -1.9315 P      0
   -0.4624   -2.0567   -2.0596 C      0
    1.8752   -3.4621   -1.0187 C      0
    2.0290   -2.0472   -3.6043 C      0
    4.2675   -0.1837   -1.5615 P      0
    4.8742   -1.8867   -1.4825 C      0
    5.3509    0.8396   -0.5363 C      0
    4.3951    0.4042   -3.2679 C      0
   -0.5820    0.4211   -0.7905 H      0
   -0.1800   -0.8175    0.4185 H      0
    0.0883    0.9001    0.7837 H      0
    1.6140    2.3182    0.4039 H      0
    3.1423    2.3463   -0.5010 H      0
    3.0593    1.5346    1.0776 H      0
    1.7996   -1.8789    1.0303 H      0
    2.5140   -0.4264    1.7606 H      0
    3.5106   -1.4929    0.7514 H      0
   -0.9838    2.6195   -5.4358 H      0
   -1.3110    0.9130   -5.0570 H      0
   -0.4907    1.4796   -7.3974 H      0
    0.2985    0.1410   -6.5326 H      0
    1.8580    1.4785   -7.8134 H      0
    2.2040    1.5024   -6.0692 H      0
    0.5312    3.7475   -6.8555 H      0
    2.0380    3.6918   -7.7983 H      0
    2.5387    5.0250   -6.0053 H      0
    3.2231    3.4367   -5.5912 H      0
    0.6872    4.6117   -4.4800 H      0
    2.2768    4.6048   -3.6828 H      0
   -0.7833   -2.9933   -2.5109 H      0
   -0.8385   -1.2406   -2.6724 H      0
   -0.9216   -1.9810   -1.0762 H      0
    1.2102   -3.6562   -0.1798 H      0
    2.8824   -3.3396   -0.6290 H      0
    1.8679   -4.3383   -1.6637 H      0
    1.8976   -3.0349   -4.0413 H      0
    3.0920   -1.8194   -3.5995 H      0
    1.5348   -1.3258   -4.2509 H      0
    5.8776   -1.9540   -1.8975 H      0
    4.2318   -2.5595   -2.0451 H      0
    4.9140   -2.2404   -0.4549 H      0
    6.3894    0.7258   -0.8402 H      0
    5.2715    0.5560    0.5111 H      0
    5.0859    1.8911   -0.6239 H      0
    3.4972    0.1665   -3.8330 H      0
    5.2417   -0.0590   -3.7702 H      0
    4.5372    1.4822   -3.2957 H      0
  1  2  1
  2  3  1
  2  4  1
  2  5  1
  5  6  1
  6  7  2
  7  8  1
  8  9  1
  9 10  1
 10 11  1
 11 12  1
 12 13  1
 13 14  1
  7 14  1
 14 15  2
  5 15  1
  2 16  1
 16 17  1
 16 18  1
 16 19  1
  2 20  1
 20 21  1
 20 22  1
 20 23  1
  1 24  1
  1 25  1
  1 26  1
  3 27  1
  3 28  1
  3 29  1
  4 30  1
  4 31  1
  4 32  1
  8 33  1
  8 34  1
  9 35  1
  9 36  1
 10 37  1
 10 38  1
 11 39  1
 11 40  1
 12 41  1
 12 42  1
 13 43  1
 13 44  1
 17 45  1
 17 46  1
 17 47  1
 18 48  1
 18 49  1
 18 50  1
 19 51  1
 19 52  1
 19 53  1
 21 54  1
 21 55  1
 21 56  1
 22 57  1
 22 58  1
 22 59  1
 23 60  1
 23 61  1
 23 62  1
M  END
$$$$
