
 OpenBabel09252517393D

 53 64  0  0  1  0  0  0  0  0999 V2000
    1.0636    0.0699   -0.0327 H   0  0  0  0  0  0  0  0  0  0  0  0
    2.1336    0.0699   -0.0327 C   0  0  0  0  0  0  0  0  0  0  0  0
    2.4903   -0.9337    0.0694 H   0  0  0  0  0  0  0  0  0  0  0  0
    2.4903    0.4833   -0.9529 H   0  0  0  0  0  0  0  0  0  0  0  0
    2.6402    0.9084    1.1295 C   0  0  0  0  0  0  0  0  0  0  0  0
    3.0606    1.6039    2.0937 N   0  0  0  0  0  4  0  0  0  0  0  0
    3.7839    2.8009    3.7529 Ru  0  0  0  0  0  0  0  0  0  0  0  0
    4.0293    1.3722    2.0715 C   0  0  0  0  0  0  0  0  0  0  0  0
    4.1639    0.5883    1.1490 O   0  0  0  0  0  0  0  0  0  0  0  0
    3.1099    1.5219    3.2459 Br  0  0  0  0  0  2  0  0  0  0  0  0
    1.8399    1.3419    3.9649 Ru  0  3  0  0  0  0  0  0  0  0  0  0
    3.3624    2.9467    4.1515 C   0  0  0  0  0  0  0  0  0  0  0  0
    4.1977    3.8273    4.2539 O   0  0  0  0  0  0  0  0  0  0  0  0
    2.5279    2.4696    2.2433 N   0  0  0  0  0  4  0  0  0  0  0  0
    2.9277    3.1248    1.2429 C   0  0  0  0  0  0  0  0  0  0  0  0
    3.4096    3.9147    0.0370 C   0  0  0  0  0  0  0  0  0  0  0  0
    2.9100    3.5642   -0.8419 H   0  0  0  0  0  0  0  0  0  0  0  0
    3.1926    4.9526    0.1806 H   0  0  0  0  0  0  0  0  0  0  0  0
    4.4654    3.7835   -0.0766 H   0  0  0  0  0  0  0  0  0  0  0  0
   -1.4861    2.7449    4.1579 C   0  0  2  0  0  0  0  0  0  0  0  0
   -2.4546    3.1208    4.4142 H   0  0  0  0  0  0  0  0  0  0  0  0
   -1.0691    2.7989    2.7519 C   0  0  1  0  0  0  0  0  0  0  0  0
   -1.8760    3.0978    2.1159 H   0  0  0  0  0  0  0  0  0  0  0  0
    0.2619    2.6439    2.6289 C   0  0  1  0  0  0  0  0  0  0  0  0
    0.8829    2.4479    3.9889 C   0  0  1  0  0  0  0  0  0  0  0  0
   -0.3001    2.1049    4.9149 C   0  0  2  0  0  0  0  0  0  0  0  0
   -0.8334    1.9044    5.8206 H   0  0  0  0  0  0  0  0  0  0  0  0
    1.5729    3.7279    4.4649 C   0  0  0  0  0  0  0  0  0  0  0  0
    1.9795    3.5771    5.9217 C   0  0  0  0  0  0  0  0  0  0  0  0
    2.4627    4.4730    6.2517 H   0  0  0  0  0  0  0  0  0  0  0  0
    1.1091    3.4008    6.5185 H   0  0  0  0  0  0  0  0  0  0  0  0
    2.6529    2.7515    6.0205 H   0  0  0  0  0  0  0  0  0  0  0  0
    0.6165    4.9015    4.3291 C   0  0  0  0  0  0  0  0  0  0  0  0
    0.3301    5.0114    3.3041 H   0  0  0  0  0  0  0  0  0  0  0  0
   -0.2538    4.7232    4.9255 H   0  0  0  0  0  0  0  0  0  0  0  0
    1.1001    5.7960    4.6623 H   0  0  0  0  0  0  0  0  0  0  0  0
    2.8169    3.9789    3.6069 C   0  0  1  0  0  0  0  0  0  0  0  0
    1.3570    5.9152    4.2817 C   0  0  2  0  0  0  0  0  0  0  0  0
    2.1908    6.5592    4.0947 H   0  0  0  0  0  0  0  0  0  0  0  0
    1.4017    4.7369    3.3225 C   0  0  2  0  0  0  0  0  0  0  0  0
    0.5679    4.0930    3.5094 H   0  0  0  0  0  0  0  0  0  0  0  0
    1.3380    5.2457    1.8916 C   0  0  2  0  0  0  0  0  0  0  0  0
    2.1718    5.8897    1.7046 H   0  0  0  0  0  0  0  0  0  0  0  0
    1.3827    4.0675    0.9324 C   0  0  1  0  0  0  0  0  0  0  0  0
    0.1982    3.1527    1.1980 C   0  0  0  0  0  0  0  0  0  0  0  0
    0.2429    1.9744    0.2388 C   0  0  0  0  0  0  0  0  0  0  0  0
   -0.5909    1.3304    0.4258 H   0  0  0  0  0  0  0  0  0  0  0  0
    0.1981    2.3326   -0.7685 H   0  0  0  0  0  0  0  0  0  0  0  0
    1.1530    1.4307    0.3839 H   0  0  0  0  0  0  0  0  0  0  0  0
   -1.0946    3.9250    0.9919 C   0  0  0  0  0  0  0  0  0  0  0  0
   -1.9285    3.2810    1.1789 H   0  0  0  0  0  0  0  0  0  0  0  0
   -1.1261    4.7544    1.6672 H   0  0  0  0  0  0  0  0  0  0  0  0
   -1.1395    4.2832   -0.0153 H   0  0  0  0  0  0  0  0  0  0  0  0
  1  2  1  0  0  0  0
  2  3  1  0  0  0  0
  2  4  1  0  0  0  0
  2  5  1  0  0  0  0
  5  6  3  0  0  0  0
  6  7  1  0  0  0  0
  7  8  1  0  0  0  0
  7 10  1  0  0  0  0
  7 37  1  0  0  0  0
  7 38  1  0  0  0  0
  7 40  1  0  0  0  0
  7 42  1  0  0  0  0
  7 44  1  0  0  0  0
  8  9  3  0  0  0  0
 10 11  1  0  0  0  0
 11 12  1  0  0  0  0
 11 14  1  0  0  0  0
 11 20  1  0  0  0  0
 11 22  1  0  0  0  0
 11 24  1  0  0  0  0
 11 25  1  0  0  0  0
 11 26  1  0  0  0  0
 12 13  3  0  0  0  0
 14 15  3  0  0  0  0
 15 16  1  0  0  0  0
 16 17  1  0  0  0  0
 16 18  1  0  0  0  0
 16 19  1  0  0  0  0
 20 21  1  6  0  0  0
 20 22  1  0  0  0  0
 20 26  1  0  0  0  0
 22 23  1  6  0  0  0
 22 24  1  0  0  0  0
 24 25  1  0  0  0  0
 24 45  1  6  0  0  0
 25 26  1  0  0  0  0
 25 28  1  1  0  0  0
 26 27  1  1  0  0  0
 28 29  1  0  0  0  0
 28 33  1  0  0  0  0
 29 30  1  0  0  0  0
 29 31  1  0  0  0  0
 29 32  1  0  0  0  0
 33 34  1  0  0  0  0
 33 35  1  0  0  0  0
 33 36  1  0  0  0  0
 37 28  1  1  0  0  0
 37 38  1  0  0  0  0
 37 44  1  0  0  0  0
 38 39  1  6  0  0  0
 38 40  1  0  0  0  0
 40 41  1  6  0  0  0
 40 42  1  0  0  0  0
 42 43  1  6  0  0  0
 42 44  1  0  0  0  0
 44 45  1  1  0  0  0
 45 46  1  0  0  0  0
 45 50  1  0  0  0  0
 46 47  1  0  0  0  0
 46 48  1  0  0  0  0
 46 49  1  0  0  0  0
 50 51  1  0  0  0  0
 50 52  1  0  0  0  0
 50 53  1  0  0  0  0
M  CHG  1  11   1
M  END
$$$$
