
     RDKit          3D

 32 35  0  0  0  0  0  0  0  0999 V2000
    2.9728   -2.1993    0.4198 C   0  0  0  0  0  0  0  0  0  0  0  0
    4.0537   -1.3405    0.5928 C   0  0  0  0  0  0  0  0  0  0  0  0
    3.8401    0.0341    0.6379 C   0  0  0  0  0  0  0  0  0  0  0  0
    2.5456    0.5407    0.4858 C   0  0  0  0  0  0  0  0  0  0  0  0
    1.4497   -0.2991    0.2391 C   0  0  0  0  0  0  0  0  0  0  0  0
    1.6823   -1.6826    0.2571 C   0  0  0  0  0  0  0  0  0  0  0  0
    0.0974    0.2992    0.0375 C   0  0  0  0  0  0  0  0  0  0  0  0
   -0.0561    1.6130    0.3365 C   0  0  0  0  0  0  0  0  0  0  0  0
    1.1074    2.4884    0.6614 C   0  0  0  0  0  0  0  0  0  0  0  0
    0.9754    3.6837    0.9076 O   0  0  0  0  0  0  0  0  0  0  0  0
    2.3410    1.9105    0.6469 N   0  0  0  0  0  0  0  0  0  0  0  0
   -1.4026    2.2946    0.3719 C   0  0  0  0  0  0  0  0  0  0  0  0
   -2.5098    1.3082    0.7487 C   0  0  0  0  0  0  0  0  0  0  0  0
   -2.4072    0.0805   -0.1151 C   0  0  0  0  0  0  0  0  0  0  0  0
   -3.5660   -0.5738   -0.5566 C   0  0  0  0  0  0  0  0  0  0  0  0
   -3.4686   -1.6583   -1.4235 C   0  0  0  0  0  0  0  0  0  0  0  0
   -2.2182   -2.0807   -1.8633 C   0  0  0  0  0  0  0  0  0  0  0  0
   -1.0608   -1.4418   -1.4080 C   0  0  0  0  0  0  0  0  0  0  0  0
   -1.1293   -0.3851   -0.4883 C   0  0  0  0  0  0  0  0  0  0  0  0
    3.1282   -3.2756    0.4200 H   0  0  0  0  0  0  0  0  0  0  0  0
    5.0555   -1.7424    0.7200 H   0  0  0  0  0  0  0  0  0  0  0  0
    4.6815    0.6981    0.8148 H   0  0  0  0  0  0  0  0  0  0  0  0
    0.8630   -2.3906    0.1700 H   0  0  0  0  0  0  0  0  0  0  0  0
    3.1134    2.5231    0.8686 H   0  0  0  0  0  0  0  0  0  0  0  0
   -1.4200    3.1077    1.1067 H   0  0  0  0  0  0  0  0  0  0  0  0
   -1.6004    2.7401   -0.6115 H   0  0  0  0  0  0  0  0  0  0  0  0
   -3.4825    1.7968    0.6193 H   0  0  0  0  0  0  0  0  0  0  0  0
   -2.4237    1.0105    1.8011 H   0  0  0  0  0  0  0  0  0  0  0  0
   -4.5480   -0.2258   -0.2448 H   0  0  0  0  0  0  0  0  0  0  0  0
   -4.3678   -2.1569   -1.7757 H   0  0  0  0  0  0  0  0  0  0  0  0
   -2.1403   -2.9040   -2.5688 H   0  0  0  0  0  0  0  0  0  0  0  0
   -0.1058   -1.7723   -1.8078 H   0  0  0  0  0  0  0  0  0  0  0  0
  1  2  2  0
  2  3  1  0
  3  4  2  0
  4  5  1  0
  5  6  2  0
  5  7  1  0
  7  8  2  0
  8  9  1  0
  9 10  2  0
  9 11  1  0
  8 12  1  0
 12 13  1  0
 13 14  1  0
 14 15  2  0
 15 16  1  0
 16 17  2  0
 17 18  1  0
 18 19  2  0
  6  1  1  0
 19  7  1  0
 11  4  1  0
 19 14  1  0
  1 20  1  0
  2 21  1  0
  3 22  1  0
  6 23  1  0
 11 24  1  0
 12 25  1  0
 12 26  1  0
 13 27  1  0
 13 28  1  0
 15 29  1  0
 16 30  1  0
 17 31  1  0
 18 32  1  0
M  END
