
 OpenBabel09252519563D

 29 30  0  0  0  0  0  0  0  0999 V2000
    1.0511    0.0687   -0.0517 H   0  0  0  0  0  0  0  0  0  0  0  0
    2.1211    0.0687   -0.0517 C   0  0  0  0  0  0  0  0  0  0  0  0
    2.3954    0.0184   -1.0847 H   0  0  0  0  0  0  0  0  0  0  0  0
    2.6572    1.2497    0.6499 N   0  0  0  0  0  0  0  0  0  0  0  0
    1.9670    2.5331    0.8429 C   0  0  0  0  0  0  0  0  0  0  0  0
    2.8275    3.9417    1.7786 Au  0  0  0  0  0  0  0  0  0  0  0  0
    3.9068    5.7086    2.9522 Cl  0  0  0  0  0  0  0  0  0  0  0  0
    0.6102    2.7253    0.3110 N   0  0  0  0  0  0  0  0  0  0  0  0
   -0.5847    1.9379    0.6671 C   0  0  0  0  0  0  0  0  0  0  0  0
   -1.1662    2.3680    1.4556 H   0  0  0  0  0  0  0  0  0  0  0  0
   -0.3175    0.9647    1.0227 H   0  0  0  0  0  0  0  0  0  0  0  0
   -1.3089    1.8597   -0.6482 C   0  0  0  0  0  0  0  0  0  0  0  0
   -0.9050    1.1214   -1.3090 H   0  0  0  0  0  0  0  0  0  0  0  0
   -2.3337    1.5860   -0.5074 H   0  0  0  0  0  0  0  0  0  0  0  0
   -1.1877    3.3116   -1.2015 C   0  0  0  0  0  0  0  0  0  0  0  0
   -1.2826    3.3634   -2.2660 H   0  0  0  0  0  0  0  0  0  0  0  0
   -1.9643    3.9363   -0.8120 H   0  0  0  0  0  0  0  0  0  0  0  0
    0.1853    3.7664   -0.6997 C   0  0  0  0  0  0  0  0  0  0  0  0
    0.8910    3.8553   -1.4990 H   0  0  0  0  0  0  0  0  0  0  0  0
    0.1148    4.7290   -0.2380 H   0  0  0  0  0  0  0  0  0  0  0  0
    4.0460    0.9002    1.1346 C   0  0  0  0  0  0  0  0  0  0  0  0
    4.2163    1.2438    2.1335 H   0  0  0  0  0  0  0  0  0  0  0  0
    4.7858    1.3633    0.5156 H   0  0  0  0  0  0  0  0  0  0  0  0
    4.1420   -0.6244    1.0338 C   0  0  0  0  0  0  0  0  0  0  0  0
    4.5664   -1.0758    1.9061 H   0  0  0  0  0  0  0  0  0  0  0  0
    4.7746   -0.9157    0.2215 H   0  0  0  0  0  0  0  0  0  0  0  0
    2.6678   -1.0603    0.7774 C   0  0  0  0  0  0  0  0  0  0  0  0
    2.1149   -1.2285    1.6779 H   0  0  0  0  0  0  0  0  0  0  0  0
    2.6279   -1.9855    0.2414 H   0  0  0  0  0  0  0  0  0  0  0  0
  1  2  1  0  0  0  0
  2  3  1  0  0  0  0
  2  4  1  0  0  0  0
  2 27  1  0  0  0  0
  4  5  1  0  0  0  0
  4 21  1  0  0  0  0
  5  6  2  0  0  0  0
  5  8  1  0  0  0  0
  6  7  1  0  0  0  0
  8  9  1  0  0  0  0
  8 18  1  0  0  0  0
  9 10  1  0  0  0  0
  9 11  1  0  0  0  0
  9 12  1  0  0  0  0
 12 13  1  0  0  0  0
 12 14  1  0  0  0  0
 12 15  1  0  0  0  0
 15 16  1  0  0  0  0
 15 17  1  0  0  0  0
 15 18  1  0  0  0  0
 18 19  1  0  0  0  0
 18 20  1  0  0  0  0
 21 22  1  0  0  0  0
 21 23  1  0  0  0  0
 21 24  1  0  0  0  0
 24 25  1  0  0  0  0
 24 26  1  0  0  0  0
 24 27  1  0  0  0  0
 27 28  1  0  0  0  0
 27 29  1  0  0  0  0
M  END
$$$$
