
     RDKit          3D

 29 30  0  0  0  0  0  0  0  0999 V2000
   -2.4101    0.8552    0.9413 C   0  0  0  0  0  0  0  0  0  0  0  0
   -1.3122    0.5343    0.0489 N   0  0  0  0  0  0  0  0  0  0  0  0
    0.0745    0.7729    0.0040 C   0  0  0  0  0  0  0  0  0  0  0  0
    1.1944    2.3148   -0.1708 Au  0  0  0  0  0  3  0  0  0  0  0  0
   -1.0038    4.1742   -0.3292 Cl  0  0  0  0  0  0  0  0  0  0  0  0
    1.2113   -0.0710    0.0738 N   0  0  0  0  0  0  0  0  0  0  0  0
    1.9585   -0.7371   -0.9989 C   0  0  0  0  0  0  0  0  0  0  0  0
    3.4156   -0.4528   -0.6979 C   0  0  0  0  0  0  0  0  0  0  0  0
    3.4327   -0.3596    0.8124 C   0  0  0  0  0  0  0  0  0  0  0  0
    1.9671   -0.5228    1.2246 C   0  0  0  0  0  0  0  0  0  0  0  0
   -1.8348   -0.2410   -1.0875 C   0  0  0  0  0  0  0  0  0  0  0  0
   -3.3056   -0.4455   -0.7555 C   0  0  0  0  0  0  0  0  0  0  0  0
   -3.2942   -0.3603    0.7648 C   0  0  0  0  0  0  0  0  0  0  0  0
   -2.9445    1.7176    0.4943 H   0  0  0  0  0  0  0  0  0  0  0  0
   -2.0753    1.0233    1.9765 H   0  0  0  0  0  0  0  0  0  0  0  0
    1.7111   -0.2093   -1.9518 H   0  0  0  0  0  0  0  0  0  0  0  0
    1.7782   -1.8185   -1.0263 H   0  0  0  0  0  0  0  0  0  0  0  0
    3.7648    0.5228   -1.1003 H   0  0  0  0  0  0  0  0  0  0  0  0
    4.1079   -1.2265   -1.0489 H   0  0  0  0  0  0  0  0  0  0  0  0
    3.8701    0.5710    1.1957 H   0  0  0  0  0  0  0  0  0  0  0  0
    4.0443   -1.2066    1.2197 H   0  0  0  0  0  0  0  0  0  0  0  0
    1.7595    0.0729    2.1409 H   0  0  0  0  0  0  0  0  0  0  0  0
    1.8063   -1.6077    1.3770 H   0  0  0  0  0  0  0  0  0  0  0  0
   -1.3603   -1.2330   -1.1549 H   0  0  0  0  0  0  0  0  0  0  0  0
   -1.7979    0.3561   -2.0188 H   0  0  0  0  0  0  0  0  0  0  0  0
   -3.9157    0.4218   -1.0884 H   0  0  0  0  0  0  0  0  0  0  0  0
   -3.7424   -1.3506   -1.1564 H   0  0  0  0  0  0  0  0  0  0  0  0
   -4.2964   -0.2048    1.1959 H   0  0  0  0  0  0  0  0  0  0  0  0
   -2.8031   -1.2897    1.1156 H   0  0  0  0  0  0  0  0  0  0  0  0
  1  2  1  0
  2  3  1  0
  3  4  2  3
  4  5  1  0
  3  6  1  0
  6  7  1  0
  7  8  1  0
  8  9  1  0
  9 10  1  0
  2 11  1  0
 11 12  1  0
 12 13  1  0
 13  1  1  0
 10  6  1  0
  1 14  1  0
  1 15  1  0
  7 16  1  0
  7 17  1  0
  8 18  1  0
  8 19  1  0
  9 20  1  0
  9 21  1  0
 10 22  1  0
 10 23  1  0
 11 24  1  0
 11 25  1  0
 12 26  1  0
 12 27  1  0
 13 28  1  0
 13 29  1  0
M  END
