
     RDKit          3D

 23 24  0  0  0  0  0  0  0  0999 V2000
    3.5165    0.3593    0.1670 C   0  0  0  0  0  0  0  0  0  0  0  0
    2.9014    0.1134    1.3961 C   0  0  0  0  0  0  0  0  0  0  0  0
    1.5976   -0.3793    1.4385 C   0  0  0  0  0  0  0  0  0  0  0  0
    0.9160   -0.6143    0.2411 C   0  0  0  0  0  0  0  0  0  0  0  0
   -0.7586   -1.2345    0.2911 S   0  0  0  0  0  6  0  0  0  0  0  0
   -0.8725   -1.9788    1.5354 O   0  0  0  0  0  0  0  0  0  0  0  0
   -0.9712   -1.9179   -0.9743 O   0  0  0  0  0  0  0  0  0  0  0  0
   -1.8056    0.2278    0.3924 C   0  0  2  0  0  0  0  0  0  0  0  0
   -3.2067   -0.2382    0.2944 N   0  0  0  0  0  0  0  0  0  0  0  0
   -3.5288    0.6880   -0.6469 C   0  0  0  0  0  0  0  0  0  0  0  0
   -4.6035    1.1026   -1.0004 O   0  0  0  0  0  0  0  0  0  0  0  0
   -2.0462    0.9973   -0.9161 C   0  0  0  0  0  0  0  0  0  0  0  0
    1.5309   -0.3865   -0.9931 C   0  0  0  0  0  0  0  0  0  0  0  0
    2.8350    0.1064   -1.0250 C   0  0  0  0  0  0  0  0  0  0  0  0
    4.5366    0.7363    0.1378 H   0  0  0  0  0  0  0  0  0  0  0  0
    3.4450    0.2960    2.3203 H   0  0  0  0  0  0  0  0  0  0  0  0
    1.1326   -0.5860    2.4000 H   0  0  0  0  0  0  0  0  0  0  0  0
   -1.6267    0.8289    1.2896 H   0  0  0  0  0  0  0  0  0  0  0  0
   -3.8684   -0.4192    1.0372 H   0  0  0  0  0  0  0  0  0  0  0  0
   -1.7953    2.0598   -0.8784 H   0  0  0  0  0  0  0  0  0  0  0  0
   -1.6693    0.5535   -1.8408 H   0  0  0  0  0  0  0  0  0  0  0  0
    1.0143   -0.5984   -1.9269 H   0  0  0  0  0  0  0  0  0  0  0  0
    3.3268    0.2838   -1.9789 H   0  0  0  0  0  0  0  0  0  0  0  0
  1  2  2  0
  2  3  1  0
  3  4  2  0
  4  5  1  0
  5  6  2  0
  5  7  2  0
  5  8  1  0
  8  9  1  0
  9 10  1  0
 10 11  2  0
 10 12  1  0
  4 13  1  0
 13 14  2  0
 14  1  1  0
 12  8  1  0
  1 15  1  0
  2 16  1  0
  3 17  1  0
  8 18  1  1
  9 19  1  0
 12 20  1  0
 12 21  1  0
 13 22  1  0
 14 23  1  0
M  END
