
     RDKit          3D

 64 65  0  0  0  0  0  0  0  0999 V2000
    3.0103    1.6809    0.6429 C   0  0  0  0  0  0  0  0  0  0  0  0
    2.1767    0.5338    0.2639 C   0  0  0  0  0  0  0  0  0  0  0  0
    0.8850    0.7943    0.0239 N   0  0  0  0  0  0  0  0  0  0  0  0
    0.2144   -0.2831   -0.3078 N   0  0  0  0  0  0  0  0  0  0  0  0
   -1.5994   -0.4574   -0.7873 Pt  0  0  0  0  0  6  0  0  0  0  0  0
   -0.8494   -0.6955   -2.5357 C   0  0  0  0  0  0  0  0  0  0  0  0
   -1.3602   -2.3785   -0.6944 C   0  0  0  0  0  0  0  0  0  0  0  0
   -3.2332   -0.9201   -1.5904 C   0  0  0  0  0  0  0  0  0  0  0  0
   -1.8613    1.3797   -1.1620 P   0  0  0  0  0  5  0  0  0  0  0  0
   -3.6293    1.8073   -0.8465 C   0  0  0  0  0  0  0  0  0  0  0  0
   -2.0405    1.7380   -2.9128 C   0  0  0  0  0  0  0  0  0  0  0  0
   -1.1743    2.5804   -0.0906 C   0  0  0  0  0  0  0  0  0  0  0  0
   -2.1844   -0.5637    1.0073 P   0  0  0  0  0  5  0  0  0  0  0  0
   -2.0948    0.7394    2.1224 C   0  0  0  0  0  0  0  0  0  0  0  0
   -0.7639   -1.4313    1.8438 C   0  0  0  0  0  0  0  0  0  0  0  0
   -3.3650   -1.8923    1.3582 C   0  0  0  0  0  0  0  0  0  0  0  0
    1.0781   -1.2869   -0.2881 N   0  0  0  0  0  0  0  0  0  0  0  0
    2.2904   -0.8228    0.0576 C   0  0  0  0  0  0  0  0  0  0  0  0
    3.3900   -1.8049    0.1320 C   0  0  0  0  0  0  0  0  0  0  0  0
    4.7417   -1.1832   -0.0022 C   0  0  0  0  0  0  0  0  0  0  0  0
    5.2455   -0.6119    1.3161 C   0  0  0  0  0  0  0  0  0  0  0  0
    5.2499    0.9001    1.2047 C   0  0  0  0  0  0  0  0  0  0  0  0
    3.9626    1.4188    1.7772 C   0  0  0  0  0  0  0  0  0  0  0  0
    2.3760    2.5474    0.9236 H   0  0  0  0  0  0  0  0  0  0  0  0
    3.6377    2.0648   -0.1986 H   0  0  0  0  0  0  0  0  0  0  0  0
   -0.1979   -1.6127   -2.5812 H   0  0  0  0  0  0  0  0  0  0  0  0
   -1.5982   -0.8336   -3.2971 H   0  0  0  0  0  0  0  0  0  0  0  0
   -0.1064    0.1217   -2.6939 H   0  0  0  0  0  0  0  0  0  0  0  0
   -2.0727   -2.8436   -0.0441 H   0  0  0  0  0  0  0  0  0  0  0  0
   -0.3094   -2.6341   -0.6446 H   0  0  0  0  0  0  0  0  0  0  0  0
   -1.6592   -2.7835   -1.7234 H   0  0  0  0  0  0  0  0  0  0  0  0
   -4.0045   -0.8169   -0.8412 H   0  0  0  0  0  0  0  0  0  0  0  0
   -3.3695   -0.3642   -2.5422 H   0  0  0  0  0  0  0  0  0  0  0  0
   -3.2797   -1.9900   -1.9261 H   0  0  0  0  0  0  0  0  0  0  0  0
   -0.6078    1.5028   -1.5794 H   0  0  0  0  0  0  0  0  0  0  0  0
   -3.8239    2.8586   -1.2421 H   0  0  0  0  0  0  0  0  0  0  0  0
   -3.7483    1.9061    0.1907 H   0  0  0  0  0  0  0  0  0  0  0  0
   -4.1494    1.0753   -1.4119 H   0  0  0  0  0  0  0  0  0  0  0  0
   -1.5147    1.1345   -3.6727 H   0  0  0  0  0  0  0  0  0  0  0  0
   -2.0295    2.8450   -3.1301 H   0  0  0  0  0  0  0  0  0  0  0  0
   -3.0858    1.5361   -3.3343 H   0  0  0  0  0  0  0  0  0  0  0  0
   -0.6105    2.2654    0.7975 H   0  0  0  0  0  0  0  0  0  0  0  0
   -1.9324    3.2551    0.4677 H   0  0  0  0  0  0  0  0  0  0  0  0
   -0.6614    3.5042   -0.5564 H   0  0  0  0  0  0  0  0  0  0  0  0
   -3.2907    0.0423    0.6312 H   0  0  0  0  0  0  0  0  0  0  0  0
   -2.5097    1.7435    2.1172 H   0  0  0  0  0  0  0  0  0  0  0  0
   -1.0986    0.9859    2.6323 H   0  0  0  0  0  0  0  0  0  0  0  0
   -2.6187    0.2995    3.0646 H   0  0  0  0  0  0  0  0  0  0  0  0
    0.0346   -0.7153    1.7641 H   0  0  0  0  0  0  0  0  0  0  0  0
   -0.6942   -2.3298    1.2669 H   0  0  0  0  0  0  0  0  0  0  0  0
   -1.1355   -1.6235    2.8688 H   0  0  0  0  0  0  0  0  0  0  0  0
   -3.9424   -2.2937    0.5215 H   0  0  0  0  0  0  0  0  0  0  0  0
   -2.9205   -2.8437    1.7848 H   0  0  0  0  0  0  0  0  0  0  0  0
   -4.0851   -1.6551    2.1833 H   0  0  0  0  0  0  0  0  0  0  0  0
    3.2666   -2.5427   -0.6954 H   0  0  0  0  0  0  0  0  0  0  0  0
    3.3990   -2.4010    1.0717 H   0  0  0  0  0  0  0  0  0  0  0  0
    5.4559   -1.9961   -0.2930 H   0  0  0  0  0  0  0  0  0  0  0  0
    4.8084   -0.4411   -0.8230 H   0  0  0  0  0  0  0  0  0  0  0  0
    6.2341   -1.0197    1.6121 H   0  0  0  0  0  0  0  0  0  0  0  0
    4.5234   -0.9409    2.1151 H   0  0  0  0  0  0  0  0  0  0  0  0
    5.3618    1.1895    0.1377 H   0  0  0  0  0  0  0  0  0  0  0  0
    6.1202    1.3498    1.7225 H   0  0  0  0  0  0  0  0  0  0  0  0
    3.5471    0.7947    2.5883 H   0  0  0  0  0  0  0  0  0  0  0  0
    4.2030    2.4181    2.2368 H   0  0  0  0  0  0  0  0  0  0  0  0
  1  2  1  0
  2  3  2  0
  3  4  1  0
  4  5  1  0
  5  6  1  0
  5  7  1  0
  5  8  1  0
  5  9  1  0
  9 10  1  0
  9 11  1  0
  9 12  1  0
  5 13  1  0
 13 14  1  0
 13 15  1  0
 13 16  1  0
  4 17  1  0
 17 18  2  0
 18 19  1  0
 19 20  1  0
 20 21  1  0
 21 22  1  0
 22 23  1  0
 23  1  1  0
 18  2  1  0
  1 24  1  0
  1 25  1  0
  6 26  1  0
  6 27  1  0
  6 28  1  0
  7 29  1  0
  7 30  1  0
  7 31  1  0
  8 32  1  0
  8 33  1  0
  8 34  1  0
  9 35  1  0
 10 36  1  0
 10 37  1  0
 10 38  1  0
 11 39  1  0
 11 40  1  0
 11 41  1  0
 12 42  1  0
 12 43  1  0
 12 44  1  0
 13 45  1  0
 14 46  1  0
 14 47  1  0
 14 48  1  0
 15 49  1  0
 15 50  1  0
 15 51  1  0
 16 52  1  0
 16 53  1  0
 16 54  1  0
 19 55  1  0
 19 56  1  0
 20 57  1  0
 20 58  1  0
 21 59  1  0
 21 60  1  0
 22 61  1  0
 22 62  1  0
 23 63  1  0
 23 64  1  0
M  END
