
     RDKit          3D

 35 38  0  0  0  0  0  0  0  0999 V2000
    3.4189    1.8304    0.7704 C   0  0  0  0  0  0  0  0  0  0  0  0
    2.0273    1.6853    0.7496 C   0  0  0  0  0  0  0  0  0  0  0  0
    1.4243    0.4356    0.5319 C   0  0  0  0  0  0  0  0  0  0  0  0
   -0.0116    0.2814    0.4907 N   0  0  0  0  0  0  0  0  0  0  0  0
   -0.6116   -0.9374    0.8002 C   0  0  0  0  0  0  0  0  0  0  0  0
   -0.0554   -1.8989    1.3270 O   0  0  0  0  0  0  0  0  0  0  0  0
   -2.0474   -1.0894    0.3569 C   0  0  2  0  0  0  0  0  0  0  0  0
   -2.1453   -1.1961   -1.1843 C   0  0  0  0  0  0  0  0  0  0  0  0
   -3.1785   -0.1010   -1.4891 C   0  0  2  0  0  0  0  0  0  0  0  0
   -3.9304   -0.3164   -3.2295 Br  0  0  0  0  0  0  0  0  0  0  0  0
   -2.4855    1.1567   -1.3337 O   0  0  0  0  0  0  0  0  0  0  0  0
   -2.3214    1.3384    0.0911 C   0  0  2  0  0  0  0  0  0  0  0  0
   -3.1127    2.8742    0.5550 Cl  0  0  0  0  0  0  0  0  0  0  0  0
   -0.8355    1.4946    0.4640 C   0  0  0  0  0  0  0  0  0  0  0  0
   -2.9903    0.0906    0.6829 C   0  0  1  0  0  0  0  0  0  0  0  0
   -4.1221   -0.2369   -0.3007 C   0  0  1  0  0  0  0  0  0  0  0  0
   -5.8731    0.8982   -0.2216 I   0  0  0  0  0  0  0  0  0  0  0  0
    2.2762   -0.6585    0.3070 C   0  0  0  0  0  0  0  0  0  0  0  0
    3.6787   -0.5276    0.3159 C   0  0  0  0  0  0  0  0  0  0  0  0
    4.5544   -1.7361    0.0942 C   0  0  0  0  0  0  0  0  0  0  0  0
    4.7704   -2.4405    1.2384 F   0  0  0  0  0  0  0  0  0  0  0  0
    5.7903   -1.4178   -0.3857 F   0  0  0  0  0  0  0  0  0  0  0  0
    4.0300   -2.6194   -0.8006 F   0  0  0  0  0  0  0  0  0  0  0  0
    4.2416    0.7288    0.5607 C   0  0  0  0  0  0  0  0  0  0  0  0
    3.8586    2.8080    0.9561 H   0  0  0  0  0  0  0  0  0  0  0  0
    1.4425    2.5810    0.9369 H   0  0  0  0  0  0  0  0  0  0  0  0
   -2.4426   -2.0066    0.8147 H   0  0  0  0  0  0  0  0  0  0  0  0
   -1.1893   -1.0181   -1.6896 H   0  0  0  0  0  0  0  0  0  0  0  0
   -2.5006   -2.1955   -1.4634 H   0  0  0  0  0  0  0  0  0  0  0  0
   -0.7611    1.9159    1.4756 H   0  0  0  0  0  0  0  0  0  0  0  0
   -0.3858    2.1895   -0.2565 H   0  0  0  0  0  0  0  0  0  0  0  0
   -3.2509    0.1583    1.7419 H   0  0  0  0  0  0  0  0  0  0  0  0
   -4.4535   -1.2795   -0.1877 H   0  0  0  0  0  0  0  0  0  0  0  0
    1.8680   -1.6453    0.0934 H   0  0  0  0  0  0  0  0  0  0  0  0
    5.3232    0.8538    0.5836 H   0  0  0  0  0  0  0  0  0  0  0  0
  1  2  2  0
  2  3  1  0
  3  4  1  0
  4  5  1  0
  5  6  2  0
  5  7  1  0
  7  8  1  0
  8  9  1  0
  9 10  1  6
  9 11  1  0
 11 12  1  0
 12 13  1  1
 12 14  1  0
 12 15  1  0
 15 16  1  0
 16 17  1  0
  3 18  2  0
 18 19  1  0
 19 20  1  0
 20 21  1  0
 20 22  1  0
 20 23  1  0
 19 24  2  0
 24  1  1  0
 14  4  1  0
 15  7  1  0
 16  9  1  0
  1 25  1  0
  2 26  1  0
  7 27  1  1
  8 28  1  0
  8 29  1  0
 14 30  1  0
 14 31  1  0
 15 32  1  1
 16 33  1  1
 18 34  1  0
 24 35  1  0
M  END
