
 OpenBabel09252517083D

 49 54  0  0  1  0  0  0  0  0999 V2000
    0.9687    0.0920    0.0236 H   0  0  0  0  0  0  0  0  0  0  0  0
    2.0387    0.0920    0.0236 C   0  0  0  0  0  3  0  0  0  0  0  0
    2.5454   -1.0876   -0.7902 C   0  0  0  0  0  3  0  0  0  0  0  0
    2.1887   -1.0066   -1.7958 H   0  0  0  0  0  0  0  0  0  0  0  0
    4.0654   -1.0876   -0.7902 C   0  0  0  0  0  3  0  0  0  0  0  0
    4.6236   -0.3736   -2.0481 C   0  0  0  0  0  3  0  0  0  0  0  0
    3.7620    0.8231   -2.4169 C   0  0  0  0  0  3  0  0  0  0  0  0
    2.5454   -0.0230    1.4520 C   0  0  0  0  0  3  0  0  0  0  0  0
    2.1887    0.8074    2.0249 H   0  0  0  0  0  0  0  0  0  0  0  0
    2.3791    0.3445   -2.8276 C   0  0  0  0  0  0  0  0  0  0  0  0
    1.9276   -0.1826   -2.0132 H   0  0  0  0  0  0  0  0  0  0  0  0
    1.7726    1.1869   -3.0872 H   0  0  0  0  0  0  0  0  0  0  0  0
    8.0664    1.4938   -1.6453 P   0  0  0  0  0  0  0  0  0  0  0  0
    7.8677    1.7560   -3.4455 C   0  0  0  0  0  0  0  0  0  0  0  0
    6.5766    1.7053   -3.7610 F   0  0  0  0  0  0  0  0  0  0  0  0
    8.3586    2.9468   -3.7770 F   0  0  0  0  0  0  0  0  0  0  0  0
    8.5233    0.8064   -4.1069 F   0  0  0  0  0  0  0  0  0  0  0  0
    7.2764    2.6431   -0.4605 C   0  0  0  0  0  0  0  0  0  0  0  0
    8.0063    2.7065    0.6495 F   0  0  0  0  0  0  0  0  0  0  0  0
    7.1925    3.8533   -1.0057 F   0  0  0  0  0  0  0  0  0  0  0  0
    6.0561    2.2047   -0.1643 F   0  0  0  0  0  0  0  0  0  0  0  0
    6.0316    0.0762   -1.6271 Ir  0  0  0  0  0  0  0  0  0  0  0  0
    7.0718   -0.8968   -2.1153 C   0  0  0  0  0  0  0  0  0  0  0  0
    6.8680   -0.3183   -1.2386 H   0  0  0  0  0  0  0  0  0  0  0  0
    7.1357   -1.9366   -1.8710 H   0  0  0  0  0  0  0  0  0  0  0  0
    7.9065   -0.2090   -2.9183 C   0  0  1  0  0  0  0  0  0  0  0  0
    7.1959    0.5847   -2.8187 H   0  0  0  0  0  0  0  0  0  0  0  0
    7.4927    1.1889   -3.0135 C   0  0  2  0  0  0  0  0  0  0  0  0
    8.2969    1.5491   -1.7750 C   0  0  0  0  0  0  0  0  0  0  0  0
    7.9401    0.9822   -0.9406 H   0  0  0  0  0  0  0  0  0  0  0  0
    9.3297    1.3253   -1.9428 H   0  0  0  0  0  0  0  0  0  0  0  0
    8.1871    2.5935   -1.5697 H   0  0  0  0  0  0  0  0  0  0  0  0
    6.3780    1.4020   -2.2508 C   0  0  0  0  0  0  0  0  0  0  0  0
    6.7647    0.4117   -2.1291 H   0  0  0  0  0  0  0  0  0  0  0  0
    5.8557    2.3270   -2.1227 H   0  0  0  0  0  0  0  0  0  0  0  0
    6.0412    0.1687   -0.0977 P   0  0  0  0  0  0  0  0  0  0  0  0
    5.5127    1.9161   -0.2250 C   0  0  0  0  0  0  0  0  0  0  0  0
    4.5583    2.1569    0.6695 F   0  0  0  0  0  0  0  0  0  0  0  0
    6.5520    2.7118    0.0104 F   0  0  0  0  0  0  0  0  0  0  0  0
    5.0436    2.1494   -1.4475 F   0  0  0  0  0  0  0  0  0  0  0  0
    6.7365   -0.4649    1.4720 C   0  0  0  0  0  0  0  0  0  0  0  0
    5.9797   -1.4619    1.9217 F   0  0  0  0  0  0  0  0  0  0  0  0
    7.9733   -0.9069    1.2626 F   0  0  0  0  0  0  0  0  0  0  0  0
    6.7619    0.5135    2.3725 F   0  0  0  0  0  0  0  0  0  0  0  0
    4.6234   -0.2260    0.3710 C   0  0  0  0  0  0  0  0  0  0  0  0
    4.0097    0.6248    0.5818 H   0  0  0  0  0  0  0  0  0  0  0  0
    4.6674   -0.7932    1.2772 H   0  0  0  0  0  0  0  0  0  0  0  0
    9.1987    2.2826   -1.6555 H   0  0  0  0  0  0  0  0  0  0  0  0
    5.9154   -0.6713   -1.1854 H   0  0  0  0  0  0  0  0  0  0  0  0
  1  2  1  0  0  0  0
  2  3  1  0  0  0  0
  2  8  1  0  0  0  0
  3  4  1  0  0  0  0
  3  5  1  0  0  0  0
  5  6  1  0  0  0  0
  5 45  1  0  0  0  0
  6  7  1  0  0  0  0
  6 22  1  0  0  0  0
  7  8  1  0  0  0  0
  7 10  1  0  0  0  0
  8  9  1  0  0  0  0
 10 11  1  0  0  0  0
 10 12  1  0  0  0  0
 10 13  1  0  0  0  0
 13 14  1  0  0  0  0
 13 18  1  0  0  0  0
 13 22  1  0  0  0  0
 13 48  1  0  0  0  0
 14 15  1  0  0  0  0
 14 16  1  0  0  0  0
 14 17  1  0  0  0  0
 18 19  1  0  0  0  0
 18 20  1  0  0  0  0
 18 21  1  0  0  0  0
 22 23  1  0  0  0  0
 22 26  1  0  0  0  0
 22 28  1  0  0  0  0
 22 33  1  0  0  0  0
 22 36  1  0  0  0  0
 23 24  1  0  0  0  0
 23 25  1  0  0  0  0
 23 26  2  0  0  0  0
 26 27  1  1  0  0  0
 26 28  1  0  0  0  0
 28 29  1  1  0  0  0
 28 33  2  0  0  0  0
 29 30  1  0  0  0  0
 29 31  1  0  0  0  0
 29 32  1  0  0  0  0
 33 34  1  0  0  0  0
 33 35  1  0  0  0  0
 36 37  1  0  0  0  0
 36 41  1  0  0  0  0
 36 45  1  0  0  0  0
 36 49  1  0  0  0  0
 37 38  1  0  0  0  0
 37 39  1  0  0  0  0
 37 40  1  0  0  0  0
 41 42  1  0  0  0  0
 41 43  1  0  0  0  0
 41 44  1  0  0  0  0
 45 46  1  0  0  0  0
 45 47  1  0  0  0  0
M  END
$$$$
