
     RDKit          3D

 28 28  0  0  0  0  0  0  0  0999 V2000
   -0.4795    3.0808   -1.0622 C   0  0  0  0  0  0  0  0  0  0  0  0
   -0.4302    1.8251   -1.9250 C   0  0  0  0  0  0  0  0  0  0  0  0
   -1.2642    0.6834   -1.3434 C   0  0  0  0  0  0  0  0  0  0  0  0
   -0.6229   -0.1612   -0.3173 C   0  0  0  0  0  0  0  0  0  0  0  0
    0.6129   -0.0184    0.1933 C   0  0  0  0  0  0  0  0  0  0  0  0
    1.1688   -0.9059    1.2272 C   0  0  0  0  0  0  0  0  0  0  0  0
    1.9278   -0.3431    2.2642 C   0  0  0  0  0  0  0  0  0  0  0  0
    2.4948   -1.1556    3.2489 C   0  0  0  0  0  0  0  0  0  0  0  0
    2.3125   -2.5314    3.1905 C   0  0  0  0  0  0  0  0  0  0  0  0
    2.8579   -3.3103    4.1336 F   0  0  0  0  0  0  0  0  0  0  0  0
    1.5776   -3.1110    2.1640 C   0  0  0  0  0  0  0  0  0  0  0  0
    1.0099   -2.2993    1.1787 C   0  0  0  0  0  0  0  0  0  0  0  0
   -2.5353    0.4495   -1.7728 C   0  0  0  0  0  0  0  0  0  0  0  0
   -3.3329   -0.6212   -1.2687 C   0  0  0  0  0  0  0  0  0  0  0  0
   -3.9686   -1.4989   -0.8530 N   0  0  0  0  0  0  0  0  0  0  0  0
   -3.1598    1.2778   -2.7532 C   0  0  0  0  0  0  0  0  0  0  0  0
   -3.6557    1.9608   -3.5498 N   0  0  0  0  0  0  0  0  0  0  0  0
   -1.5046    3.4539   -0.9661 H   0  0  0  0  0  0  0  0  0  0  0  0
   -0.0891    2.8996   -0.0560 H   0  0  0  0  0  0  0  0  0  0  0  0
    0.1243    3.8723   -1.5178 H   0  0  0  0  0  0  0  0  0  0  0  0
    0.6091    1.5097   -2.0745 H   0  0  0  0  0  0  0  0  0  0  0  0
   -0.7676    2.0880   -2.9345 H   0  0  0  0  0  0  0  0  0  0  0  0
   -1.2224   -0.9803    0.0825 H   0  0  0  0  0  0  0  0  0  0  0  0
    1.2766    0.7853   -0.1105 H   0  0  0  0  0  0  0  0  0  0  0  0
    2.0765    0.7332    2.3198 H   0  0  0  0  0  0  0  0  0  0  0  0
    3.0763   -0.7246    4.0576 H   0  0  0  0  0  0  0  0  0  0  0  0
    1.4547   -4.1889    2.1332 H   0  0  0  0  0  0  0  0  0  0  0  0
    0.4528   -2.7691    0.3714 H   0  0  0  0  0  0  0  0  0  0  0  0
  1  2  1  0
  2  3  1  0
  3  4  1  0
  4  5  2  3
  5  6  1  0
  6  7  2  0
  7  8  1  0
  8  9  2  0
  9 10  1  0
  9 11  1  0
 11 12  2  0
  3 13  2  3
 13 14  1  0
 14 15  3  0
 13 16  1  0
 16 17  3  0
 12  6  1  0
  1 18  1  0
  1 19  1  0
  1 20  1  0
  2 21  1  0
  2 22  1  0
  4 23  1  0
  5 24  1  0
  7 25  1  0
  8 26  1  0
 11 27  1  0
 12 28  1  0
M  END
