
     RDKit          3D

 42 41  0  0  0  0  0  0  0  0999 V2000
   -1.4050    2.2472   -0.3675 C   0  0  0  0  0  0  0  0  0  0  0  0
   -0.1031    0.7621   -0.4654 Pt  0  0  0  0  0  6  0  0  0  0  0  0
    1.1809    1.8172   -1.4548 C   0  0  0  0  0  0  0  0  0  0  0  0
   -0.7195    0.0326   -2.1519 C   0  0  0  0  0  0  0  0  0  0  0  0
    0.3206    1.3543    1.0277 N   0  0  0  0  0  0  0  0  0  0  0  0
    0.6565    2.1694    1.7967 N   0  0  0  0  0  4  0  0  0  0  0  0
    1.3874    3.0802    2.1892 N   0  0  0  0  0  2  0  0  0  0  0  0
   -1.2951   -0.4737    0.4686 P   0  0  0  0  0  4  0  0  0  0  0  0
   -1.3107   -2.2599    0.0005 C   0  0  0  0  0  0  0  0  0  0  0  0
   -3.1277   -0.2684    0.0453 C   0  0  0  0  0  0  0  0  0  0  0  0
   -1.4577   -0.5232    2.2443 C   0  0  0  0  0  0  0  0  0  0  0  0
    1.3880   -0.3874    0.1764 P   0  0  0  0  0  4  0  0  0  0  0  0
    1.7492   -1.6394   -1.1225 C   0  0  0  0  0  0  0  0  0  0  0  0
    3.1489    0.3227    0.1941 C   0  0  0  0  0  0  0  0  0  0  0  0
    1.4820   -1.3667    1.6680 C   0  0  0  0  0  0  0  0  0  0  0  0
   -2.1645    2.3072    0.3813 H   0  0  0  0  0  0  0  0  0  0  0  0
   -1.0332    3.2820   -0.4710 H   0  0  0  0  0  0  0  0  0  0  0  0
   -2.0252    2.2142   -1.2674 H   0  0  0  0  0  0  0  0  0  0  0  0
    1.7450    2.5530   -0.9042 H   0  0  0  0  0  0  0  0  0  0  0  0
    1.8916    1.3234   -2.1068 H   0  0  0  0  0  0  0  0  0  0  0  0
    0.7025    2.5296   -2.1926 H   0  0  0  0  0  0  0  0  0  0  0  0
   -0.1651   -0.7953   -2.5415 H   0  0  0  0  0  0  0  0  0  0  0  0
   -1.7876   -0.2061   -2.2694 H   0  0  0  0  0  0  0  0  0  0  0  0
   -0.7636    0.7561   -3.0313 H   0  0  0  0  0  0  0  0  0  0  0  0
   -2.0700   -2.7511    0.5978 H   0  0  0  0  0  0  0  0  0  0  0  0
   -0.3653   -2.7706    0.2172 H   0  0  0  0  0  0  0  0  0  0  0  0
   -1.4969   -2.3183   -1.0938 H   0  0  0  0  0  0  0  0  0  0  0  0
   -3.4442    0.7481    0.3220 H   0  0  0  0  0  0  0  0  0  0  0  0
   -3.3055   -0.4851   -0.9951 H   0  0  0  0  0  0  0  0  0  0  0  0
   -3.6952   -0.9442    0.6563 H   0  0  0  0  0  0  0  0  0  0  0  0
   -1.5624   -1.5165    2.6923 H   0  0  0  0  0  0  0  0  0  0  0  0
   -2.3105    0.0619    2.6916 H   0  0  0  0  0  0  0  0  0  0  0  0
   -0.5826   -0.0567    2.7949 H   0  0  0  0  0  0  0  0  0  0  0  0
    2.2486   -1.1381   -2.0166 H   0  0  0  0  0  0  0  0  0  0  0  0
    0.8834   -2.1230   -1.5396 H   0  0  0  0  0  0  0  0  0  0  0  0
    2.4479   -2.3774   -0.7735 H   0  0  0  0  0  0  0  0  0  0  0  0
    3.1061    1.1165    0.9689 H   0  0  0  0  0  0  0  0  0  0  0  0
    3.8062   -0.4831    0.3716 H   0  0  0  0  0  0  0  0  0  0  0  0
    3.3428    0.8033   -0.7655 H   0  0  0  0  0  0  0  0  0  0  0  0
    1.7704   -0.6330    2.5000 H   0  0  0  0  0  0  0  0  0  0  0  0
    2.3014   -2.0461    1.5224 H   0  0  0  0  0  0  0  0  0  0  0  0
    0.6311   -1.9178    2.0032 H   0  0  0  0  0  0  0  0  0  0  0  0
  1  2  1  0
  2  3  1  0
  2  4  1  0
  2  5  1  0
  5  6  2  0
  6  7  2  0
  2  8  1  0
  8  9  1  0
  8 10  1  0
  8 11  1  0
  2 12  1  0
 12 13  1  0
 12 14  1  0
 12 15  1  0
  1 16  1  0
  1 17  1  0
  1 18  1  0
  3 19  1  0
  3 20  1  0
  3 21  1  0
  4 22  1  0
  4 23  1  0
  4 24  1  0
  9 25  1  0
  9 26  1  0
  9 27  1  0
 10 28  1  0
 10 29  1  0
 10 30  1  0
 11 31  1  0
 11 32  1  0
 11 33  1  0
 13 34  1  0
 13 35  1  0
 13 36  1  0
 14 37  1  0
 14 38  1  0
 14 39  1  0
 15 40  1  0
 15 41  1  0
 15 42  1  0
M  CHG  2   6   1   7  -1
M  RAD  2   8   2  12   2
M  END
