
 OpenBabel09252514033D

 42 41  0  0  0  0  0  0  0  0999 V2000
    1.0094   -0.0733   -0.0673 C   0  0  0  0  0  0  0  0  0  0  0  0
    0.3027    0.4355   -2.0002 Pt  0  0  0  0  0  0  0  0  0  0  0  0
    2.0337   -0.4337   -2.8619 C   0  0  0  0  0  0  0  0  0  0  0  0
   -0.6966   -1.4299   -2.1260 C   0  0  0  0  0  0  0  0  0  0  0  0
   -0.3873    0.9324   -3.8876 N   0  0  0  0  0  0  0  0  0  0  0  0
    0.2996    0.6336   -4.9143 N   0  3  0  0  0  0  0  0  0  0  0  0
    0.9864    0.3348   -5.9410 N   0  5  0  0  0  0  0  0  0  0  0  0
   -1.6813    1.4319   -1.0126 P   0  0  0  0  0  4  0  0  0  0  0  0
   -1.2747    2.0825    0.6489 C   0  0  0  0  0  0  0  0  0  0  0  0
   -2.2708    2.7997   -2.0758 C   0  0  0  0  0  0  0  0  0  0  0  0
   -2.9927    0.1639   -0.8669 C   0  0  0  0  0  0  0  0  0  0  0  0
    1.4483    2.5737   -1.8561 P   0  0  0  0  0  4  0  0  0  0  0  0
    0.8034    3.5161   -0.4261 C   0  0  0  0  0  0  0  0  0  0  0  0
    3.2434    2.2908   -1.6408 C   0  0  0  0  0  0  0  0  0  0  0  0
    1.1607    3.5246   -3.3930 C   0  0  0  0  0  0  0  0  0  0  0  0
    0.6528   -1.0466    0.1980 H   0  0  0  0  0  0  0  0  0  0  0  0
    0.6528    0.6431    0.6429 H   0  0  0  0  0  0  0  0  0  0  0  0
    2.0794   -0.0733   -0.0673 H   0  0  0  0  0  0  0  0  0  0  0  0
    2.3784   -1.2335   -2.2403 H   0  0  0  0  0  0  0  0  0  0  0  0
    1.7959   -0.8141   -3.8334 H   0  0  0  0  0  0  0  0  0  0  0  0
    2.8005    0.3077   -2.9471 H   0  0  0  0  0  0  0  0  0  0  0  0
   -1.7462   -1.2645   -2.2519 H   0  0  0  0  0  0  0  0  0  0  0  0
   -0.3196   -1.9809   -2.9621 H   0  0  0  0  0  0  0  0  0  0  0  0
   -0.5285   -1.9859   -1.2273 H   0  0  0  0  0  0  0  0  0  0  0  0
   -0.5079    2.8239    0.5637 H   0  0  0  0  0  0  0  0  0  0  0  0
   -2.1483    2.5212    1.0838 H   0  0  0  0  0  0  0  0  0  0  0  0
   -0.9300    1.2827    1.2705 H   0  0  0  0  0  0  0  0  0  0  0  0
   -2.5086    2.4194   -3.0472 H   0  0  0  0  0  0  0  0  0  0  0  0
   -3.1444    3.2385   -1.6409 H   0  0  0  0  0  0  0  0  0  0  0  0
   -1.5040    3.5412   -2.1609 H   0  0  0  0  0  0  0  0  0  0  0  0
   -3.2305   -0.2165   -1.8384 H   0  0  0  0  0  0  0  0  0  0  0  0
   -2.6481   -0.6359   -0.2453 H   0  0  0  0  0  0  0  0  0  0  0  0
   -3.8664    0.6026   -0.4320 H   0  0  0  0  0  0  0  0  0  0  0  0
    0.9715    2.9601    0.4725 H   0  0  0  0  0  0  0  0  0  0  0  0
    1.3078    4.4576   -0.3627 H   0  0  0  0  0  0  0  0  0  0  0  0
   -0.2462    3.6816   -0.5521 H   0  0  0  0  0  0  0  0  0  0  0  0
    3.6204    1.7398   -2.4769 H   0  0  0  0  0  0  0  0  0  0  0  0
    3.7478    3.2323   -1.5773 H   0  0  0  0  0  0  0  0  0  0  0  0
    3.4115    1.7348   -0.7421 H   0  0  0  0  0  0  0  0  0  0  0  0
    1.5378    2.9736   -4.2292 H   0  0  0  0  0  0  0  0  0  0  0  0
    0.1111    3.6901   -3.5190 H   0  0  0  0  0  0  0  0  0  0  0  0
    1.6651    4.4661   -3.3296 H   0  0  0  0  0  0  0  0  0  0  0  0
  1  2  1  0  0  0  0
  1 16  1  0  0  0  0
  1 17  1  0  0  0  0
  1 18  1  0  0  0  0
  2  3  1  0  0  0  0
  2  4  1  0  0  0  0
  2  5  1  0  0  0  0
  2  8  1  0  0  0  0
  2 12  1  0  0  0  0
  3 19  1  0  0  0  0
  3 20  1  0  0  0  0
  3 21  1  0  0  0  0
  4 22  1  0  0  0  0
  4 23  1  0  0  0  0
  4 24  1  0  0  0  0
  5  6  2  0  0  0  0
  6  7  2  0  0  0  0
  8  9  1  0  0  0  0
  8 10  1  0  0  0  0
  8 11  1  0  0  0  0
  9 25  1  0  0  0  0
  9 26  1  0  0  0  0
  9 27  1  0  0  0  0
 10 28  1  0  0  0  0
 10 29  1  0  0  0  0
 10 30  1  0  0  0  0
 11 31  1  0  0  0  0
 11 32  1  0  0  0  0
 11 33  1  0  0  0  0
 12 13  1  0  0  0  0
 12 14  1  0  0  0  0
 12 15  1  0  0  0  0
 13 34  1  0  0  0  0
 13 35  1  0  0  0  0
 13 36  1  0  0  0  0
 14 37  1  0  0  0  0
 14 38  1  0  0  0  0
 14 39  1  0  0  0  0
 15 40  1  0  0  0  0
 15 41  1  0  0  0  0
 15 42  1  0  0  0  0
M  CHG  2   6   1   7  -1
M  END
$$$$
