
     RDKit          3D

 29 30  0  0  0  0  0  0  0  0999 V2000
    2.2321    0.9902   -0.4280 C   0  0  0  0  0  0  0  0  0  0  0  0
    1.1876    0.3168    0.3186 N   0  0  0  0  0  0  0  0  0  0  0  0
   -0.1456    0.7333    0.4266 C   0  0  0  0  0  0  0  0  0  0  0  0
   -1.0814    2.3433    1.1235 Au  0  0  0  0  0  3  0  0  0  0  0  0
    1.2455    3.6834    1.9092 Cl  0  0  0  0  0  0  0  0  0  0  0  0
   -1.4012    0.1652    0.0757 N   0  0  0  0  0  0  0  0  0  0  0  0
   -2.4367   -0.6005    0.7832 C   0  0  0  0  0  0  0  0  0  0  0  0
   -3.1073   -1.4028   -0.3244 C   0  0  0  0  0  0  0  0  0  0  0  0
   -3.2348   -0.2993   -1.3793 C   0  0  0  0  0  0  0  0  0  0  0  0
   -1.8747    0.3237   -1.3077 C   0  0  0  0  0  0  0  0  0  0  0  0
    1.7555   -0.8597    0.9341 C   0  0  0  0  0  0  0  0  0  0  0  0
    3.2488   -0.5649    1.0048 C   0  0  0  0  0  0  0  0  0  0  0  0
    3.4545    0.1394   -0.3394 C   0  0  0  0  0  0  0  0  0  0  0  0
    2.4292    1.9582    0.0861 H   0  0  0  0  0  0  0  0  0  0  0  0
    1.9294    1.2321   -1.4667 H   0  0  0  0  0  0  0  0  0  0  0  0
   -3.1840    0.1245    1.1552 H   0  0  0  0  0  0  0  0  0  0  0  0
   -2.0112   -1.2384    1.5807 H   0  0  0  0  0  0  0  0  0  0  0  0
   -4.1084   -1.7436    0.0300 H   0  0  0  0  0  0  0  0  0  0  0  0
   -2.4687   -2.2163   -0.7002 H   0  0  0  0  0  0  0  0  0  0  0  0
   -4.0560    0.3511   -1.0304 H   0  0  0  0  0  0  0  0  0  0  0  0
   -3.4038   -0.7209   -2.3823 H   0  0  0  0  0  0  0  0  0  0  0  0
   -1.1989   -0.1830   -2.0323 H   0  0  0  0  0  0  0  0  0  0  0  0
   -1.9602    1.3752   -1.5899 H   0  0  0  0  0  0  0  0  0  0  0  0
    1.6599   -1.7004    0.2031 H   0  0  0  0  0  0  0  0  0  0  0  0
    1.3188   -1.1056    1.9083 H   0  0  0  0  0  0  0  0  0  0  0  0
    3.8491   -1.4784    1.0968 H   0  0  0  0  0  0  0  0  0  0  0  0
    3.4864    0.2093    1.7651 H   0  0  0  0  0  0  0  0  0  0  0  0
    3.5367   -0.6446   -1.1135 H   0  0  0  0  0  0  0  0  0  0  0  0
    4.3397    0.8128   -0.3070 H   0  0  0  0  0  0  0  0  0  0  0  0
  1  2  1  0
  2  3  1  0
  3  4  2  3
  4  5  1  0
  3  6  1  0
  6  7  1  0
  7  8  1  0
  8  9  1  0
  9 10  1  0
  2 11  1  0
 11 12  1  0
 12 13  1  0
 13  1  1  0
 10  6  1  0
  1 14  1  0
  1 15  1  0
  7 16  1  0
  7 17  1  0
  8 18  1  0
  8 19  1  0
  9 20  1  0
  9 21  1  0
 10 22  1  0
 10 23  1  0
 11 24  1  0
 11 25  1  0
 12 26  1  0
 12 27  1  0
 13 28  1  0
 13 29  1  0
M  END
