
 OpenBabel09252514113D

 57 60  0  0  0  0  0  0  0  0999 V2000
    1.7843   -0.9570    0.7565 C   0  0  0  0  0  0  0  0  0  0  0  0
    0.8002   -0.2526    1.5086 O   0  0  0  0  0  0  0  0  0  0  0  0
    0.8476   -0.4155    2.8682 C   0  0  0  0  0  0  0  0  0  0  0  0
    1.9803   -0.9071    3.5392 C   0  0  0  0  0  0  0  0  0  0  0  0
    1.9678   -1.1089    4.9201 C   0  0  0  0  0  0  0  0  0  0  0  0
    0.8265   -0.8104    5.6517 C   0  0  0  0  0  0  0  0  0  0  0  0
   -0.2918   -0.2871    5.0027 C   0  0  0  0  0  0  0  0  0  0  0  0
   -0.2914   -0.0708    3.6136 C   0  0  0  0  0  0  0  0  0  0  0  0
   -1.5077    0.4551    3.0457 C   0  0  0  0  0  0  0  0  0  0  0  0
   -2.7294    0.8392    2.8006 C   0  0  0  0  0  0  0  0  0  0  0  0
   -4.1536    1.2869    2.5149 C   0  0  0  0  0  0  0  0  0  0  0  0
   -4.6661    1.6315    1.3092 C   0  0  0  0  0  0  0  0  0  0  0  0
   -3.7849    2.1747    0.3008 N   0  0  0  0  0  0  0  0  0  0  0  0
   -2.4450    1.8488   -0.0235 C   0  0  0  0  0  0  0  0  0  0  0  0
   -2.1243    0.5991   -0.5511 C   0  0  0  0  0  0  0  0  0  0  0  0
   -0.8797    0.4045   -1.1500 C   0  0  0  0  0  0  0  0  0  0  0  0
    0.0441    1.4514   -1.2156 C   0  0  0  0  0  0  0  0  0  0  0  0
   -0.2687    2.6954   -0.6754 C   0  0  0  0  0  0  0  0  0  0  0  0
   -1.5166    2.8956   -0.0906 C   0  0  0  0  0  0  0  0  0  0  0  0
   -4.6670    2.9291   -0.9505 S   0  0  0  0  0  0  0  0  0  0  0  0
   -4.4110    4.3534   -0.9516 O   0  0  0  0  0  0  0  0  0  0  0  0
   -4.6392    2.1223   -2.1526 O   0  0  0  0  0  0  0  0  0  0  0  0
   -6.2143    2.6671   -0.2050 C   0  0  0  0  0  0  0  0  0  0  0  0
   -7.4209    3.0669   -0.7661 C   0  0  0  0  0  0  0  0  0  0  0  0
   -8.5863    2.6091   -0.1677 C   0  0  0  0  0  0  0  0  0  0  0  0
   -8.5058    1.7123    0.9035 C   0  0  0  0  0  0  0  0  0  0  0  0
   -7.2602    1.3100    1.4172 C   0  0  0  0  0  0  0  0  0  0  0  0
   -6.0861    1.8682    0.9270 C   0  0  0  0  0  0  0  0  0  0  0  0
   -5.0362    1.2834    4.2372 Si  0  0  0  0  0  0  0  0  0  0  0  0
   -5.1689   -0.4978    4.8414 C   0  0  0  0  0  0  0  0  0  0  0  0
   -3.9063    2.2155    5.4690 C   0  0  0  0  0  0  0  0  0  0  0  0
   -6.6958    2.1341    4.3842 C   0  0  0  0  0  0  0  0  0  0  0  0
    1.5220   -0.9026   -0.3024 H   0  0  0  0  0  0  0  0  0  0  0  0
    1.8105   -2.0188    1.0253 H   0  0  0  0  0  0  0  0  0  0  0  0
    2.7691   -0.4923    0.8702 H   0  0  0  0  0  0  0  0  0  0  0  0
    2.8972   -1.1447    3.0093 H   0  0  0  0  0  0  0  0  0  0  0  0
    2.8497   -1.5034    5.4184 H   0  0  0  0  0  0  0  0  0  0  0  0
    0.8056   -0.9798    6.7248 H   0  0  0  0  0  0  0  0  0  0  0  0
   -1.1777   -0.0563    5.5899 H   0  0  0  0  0  0  0  0  0  0  0  0
   -2.8517   -0.2062   -0.5435 H   0  0  0  0  0  0  0  0  0  0  0  0
   -0.6316   -0.5649   -1.5727 H   0  0  0  0  0  0  0  0  0  0  0  0
    1.0110    1.2956   -1.6861 H   0  0  0  0  0  0  0  0  0  0  0  0
    0.4415    3.5151   -0.7347 H   0  0  0  0  0  0  0  0  0  0  0  0
   -1.7840    3.8847    0.2741 H   0  0  0  0  0  0  0  0  0  0  0  0
   -7.4466    3.6910   -1.6544 H   0  0  0  0  0  0  0  0  0  0  0  0
   -9.5557    2.9047   -0.5621 H   0  0  0  0  0  0  0  0  0  0  0  0
   -9.4210    1.3068    1.3308 H   0  0  0  0  0  0  0  0  0  0  0  0
   -7.2438    0.5453    2.1857 H   0  0  0  0  0  0  0  0  0  0  0  0
   -4.1760   -0.9208    5.0210 H   0  0  0  0  0  0  0  0  0  0  0  0
   -5.7332   -0.5408    5.7776 H   0  0  0  0  0  0  0  0  0  0  0  0
   -5.6814   -1.1183    4.1007 H   0  0  0  0  0  0  0  0  0  0  0  0
   -3.7375    3.2362    5.1128 H   0  0  0  0  0  0  0  0  0  0  0  0
   -4.3933    2.2649    6.4475 H   0  0  0  0  0  0  0  0  0  0  0  0
   -2.9441    1.7134    5.5851 H   0  0  0  0  0  0  0  0  0  0  0  0
   -6.7646    3.0092    3.7324 H   0  0  0  0  0  0  0  0  0  0  0  0
   -7.5252    1.4552    4.1711 H   0  0  0  0  0  0  0  0  0  0  0  0
   -6.8441    2.4828    5.4119 H   0  0  0  0  0  0  0  0  0  0  0  0
  1  2  1  0  0  0  0
  1 33  1  0  0  0  0
  1 34  1  0  0  0  0
  1 35  1  0  0  0  0
  2  3  1  0  0  0  0
  3  4  1  0  0  0  0
  3  8  2  0  0  0  0
  4  5  2  0  0  0  0
  4 36  1  0  0  0  0
  5  6  1  0  0  0  0
  5 37  1  0  0  0  0
  6  7  2  0  0  0  0
  6 38  1  0  0  0  0
  7  8  1  0  0  0  0
  7 39  1  0  0  0  0
  8  9  1  0  0  0  0
  9 10  3  0  0  0  0
 10 11  1  0  0  0  0
 11 12  2  0  0  0  0
 11 29  1  0  0  0  0
 12 13  1  0  0  0  0
 12 28  1  0  0  0  0
 13 14  1  0  0  0  0
 13 20  1  0  0  0  0
 14 15  1  0  0  0  0
 14 19  2  0  0  0  0
 15 16  2  0  0  0  0
 15 40  1  0  0  0  0
 16 17  1  0  0  0  0
 16 41  1  0  0  0  0
 17 18  2  0  0  0  0
 17 42  1  0  0  0  0
 18 19  1  0  0  0  0
 18 43  1  0  0  0  0
 19 44  1  0  0  0  0
 20 21  2  0  0  0  0
 20 22  2  0  0  0  0
 20 23  1  0  0  0  0
 23 24  1  0  0  0  0
 23 28  2  0  0  0  0
 24 25  2  0  0  0  0
 24 45  1  0  0  0  0
 25 26  1  0  0  0  0
 25 46  1  0  0  0  0
 26 27  2  0  0  0  0
 26 47  1  0  0  0  0
 27 28  1  0  0  0  0
 27 48  1  0  0  0  0
 29 30  1  0  0  0  0
 29 31  1  0  0  0  0
 29 32  1  0  0  0  0
 30 49  1  0  0  0  0
 30 50  1  0  0  0  0
 30 51  1  0  0  0  0
 31 52  1  0  0  0  0
 31 53  1  0  0  0  0
 31 54  1  0  0  0  0
 32 55  1  0  0  0  0
 32 56  1  0  0  0  0
 32 57  1  0  0  0  0
M  END
$$$$
