
  --CCDC--092525    3D                              

 62 63  0  0  0  0  0  0  0  0999 V2000
    0.0352    0.0087    0.0903 C      0
    1.9242   -0.0037   -0.6801 Pt     0
    1.9251   -2.0433   -0.6459 C      0
    1.1405   -0.0174   -2.5635 C      0
    1.9369    2.0348   -0.6805 N      0
    1.0540    2.7673   -1.4257 N      0
    1.3981    4.0141   -1.1818 C      0
    0.7291    5.1828   -1.8330 C      0
    1.4667    5.6571   -3.0802 C      0
    2.9728    5.7672   -2.9635 C      0
    3.4968    6.6567   -1.8211 C      0
    4.1352    5.9205   -0.6716 C      0
    3.2245    5.1717    0.2945 C      0
    2.4870    3.9899   -0.2897 C      0
    2.8467    2.7523    0.0425 N      0
    2.8501    0.0125    1.5449 P      0
    2.8397   -1.6600    2.2332 C      0
    1.8982    1.1025    2.6307 C      0
    4.5574    0.6077    1.4922 C      0
    4.1427   -0.0177   -1.6214 P      0
    5.1895   -1.2934   -0.8777 C      0
    5.0166    1.5618   -1.5115 C      0
    4.0007   -0.4195   -3.3794 C      0
   -0.4615    0.9374   -0.1817 H      0
   -0.5253   -0.8334   -0.3107 H      0
    0.0850   -0.0723    1.1741 H      0
    1.1737   -2.3945    0.0581 H      0
    2.9056   -2.4003   -0.3379 H      0
    1.6967   -2.4228   -1.6396 H      0
    1.4737   -0.9102   -3.0884 H      0
    1.4759    0.8665   -3.1023 H      0
    0.0541   -0.0155   -2.5044 H      0
    0.6870    6.0037   -1.1187 H      0
   -0.2826    4.8940   -2.1141 H      0
    1.0806    6.6415   -3.3407 H      0
    1.2458    4.9562   -3.8839 H      0
    3.3512    6.1714   -3.9012 H      0
    3.3698    4.7642   -2.8141 H      0
    2.6578    7.2296   -1.4291 H      0
    4.2380    7.3372   -2.2378 H      0
    4.6934    6.6519   -0.0890 H      0
    4.8246    5.1924   -1.0966 H      0
    2.4843    5.8758    0.6718 H      0
    3.8359    4.8106    1.1202 H      0
    1.8244   -2.0464    2.2923 H      0
    3.2641   -1.6674    3.2350 H      0
    3.4241   -2.3361    1.6126 H      0
    0.9100    0.7030    2.8420 H      0
    2.4101    1.2268    3.5826 H      0
    1.7810    2.0869    2.1824 H      0
    5.2390   -0.0741    1.0067 H      0
    4.9206    0.7063    2.5128 H      0
    4.6486    1.5869    1.0370 H      0
    5.3238   -2.1136   -1.5795 H      0
    4.7325   -1.7215    0.0113 H      0
    6.1736   -0.9026   -0.6275 H      0
    4.3485    2.3983   -1.7000 H      0
    5.7649    1.5856   -2.3006 H      0
    5.5708    1.7369   -0.6028 H      0
    3.4050    0.3281   -3.8989 H      0
    3.5240   -1.3879   -3.5165 H      0
    4.9823   -0.4557   -3.8472 H      0
  1  2  1
  2  3  1
  2  4  1
  2  5  1
  5  6  1
  6  7  2
  7  8  1
  8  9  1
  9 10  1
 10 11  1
 11 12  1
 12 13  1
 13 14  1
  7 14  1
 14 15  2
  5 15  1
  2 16  1
 16 17  1
 16 18  1
 16 19  1
  2 20  1
 20 21  1
 20 22  1
 20 23  1
  1 24  1
  1 25  1
  1 26  1
  3 27  1
  3 28  1
  3 29  1
  4 30  1
  4 31  1
  4 32  1
  8 33  1
  8 34  1
  9 35  1
  9 36  1
 10 37  1
 10 38  1
 11 39  1
 11 40  1
 12 41  1
 12 42  1
 13 43  1
 13 44  1
 17 45  1
 17 46  1
 17 47  1
 18 48  1
 18 49  1
 18 50  1
 19 51  1
 19 52  1
 19 53  1
 21 54  1
 21 55  1
 21 56  1
 22 57  1
 22 58  1
 22 59  1
 23 60  1
 23 61  1
 23 62  1
M  END
$$$$
