
     RDKit          3D

 26 26  0  0  0  0  0  0  0  0999 V2000
   -3.3620   -0.2156   -1.6098 C   0  0  0  0  0  0  0  0  0  0  0  0
   -2.8536   -0.0399   -0.1841 C   0  0  0  0  0  0  0  0  0  0  0  0
   -3.3571   -1.1663    0.7113 C   0  0  0  0  0  0  0  0  0  0  0  0
   -1.4148   -0.0757   -0.2401 O   0  0  0  0  0  0  0  0  0  0  0  0
   -0.7630    0.5512    0.7693 C   0  0  0  0  0  0  0  0  0  0  0  0
   -1.2791    1.1361    1.7076 O   0  0  0  0  0  0  0  0  0  0  0  0
    0.7111    0.4347    0.5897 C   0  0  0  0  0  0  0  0  0  0  0  0
    1.5432    1.0292    1.5514 C   0  0  0  0  0  0  0  0  0  0  0  0
    2.9349    0.9511    1.4338 C   0  0  0  0  0  0  0  0  0  0  0  0
    3.4980    0.2728    0.3451 C   0  0  0  0  0  0  0  0  0  0  0  0
    2.6782   -0.3250   -0.6219 C   0  0  0  0  0  0  0  0  0  0  0  0
    1.2865   -0.2423   -0.4968 C   0  0  0  0  0  0  0  0  0  0  0  0
    4.9588    0.1872    0.2158 N   0  0  0  0  0  0  0  0  0  0  0  0
    5.6475    0.7289    1.0917 O   0  0  0  0  0  0  0  0  0  0  0  0
    5.4150   -0.4219   -0.7621 O   0  0  0  0  0  0  0  0  0  0  0  0
   -3.0088   -1.1592   -2.0405 H   0  0  0  0  0  0  0  0  0  0  0  0
   -2.9786    0.5852   -2.2515 H   0  0  0  0  0  0  0  0  0  0  0  0
   -4.4555   -0.1992   -1.6476 H   0  0  0  0  0  0  0  0  0  0  0  0
   -3.1993    0.9311    0.1909 H   0  0  0  0  0  0  0  0  0  0  0  0
   -2.9953   -1.0409    1.7369 H   0  0  0  0  0  0  0  0  0  0  0  0
   -2.9863   -2.1372    0.3648 H   0  0  0  0  0  0  0  0  0  0  0  0
   -4.4508   -1.1954    0.7338 H   0  0  0  0  0  0  0  0  0  0  0  0
    1.1081    1.5575    2.3995 H   0  0  0  0  0  0  0  0  0  0  0  0
    3.5575    1.4207    2.1933 H   0  0  0  0  0  0  0  0  0  0  0  0
    3.1022   -0.8552   -1.4729 H   0  0  0  0  0  0  0  0  0  0  0  0
    0.6633   -0.7116   -1.2556 H   0  0  0  0  0  0  0  0  0  0  0  0
  1  2  1  0
  2  3  1  0
  2  4  1  0
  4  5  1  0
  5  6  2  0
  5  7  1  0
  7  8  2  0
  8  9  1  0
  9 10  2  0
 10 11  1  0
 11 12  2  0
 10 13  1  0
 13 14  1  0
 13 15  2  0
 12  7  1  0
  1 16  1  0
  1 17  1  0
  1 18  1  0
  2 19  1  0
  3 20  1  0
  3 21  1  0
  3 22  1  0
  8 23  1  0
  9 24  1  0
 11 25  1  0
 12 26  1  0
M  CHG  2  13   1  14  -1
M  END
