
     RDKit          3D

  0  0  0  0  0  0  0  0  0  0999 V3000
M  V30 BEGIN CTAB
M  V30 COUNTS 114 121 0 0 0
M  V30 BEGIN ATOM
M  V30 1 C 0.150358 0.375647 2.741777 0
M  V30 2 O 0.320004 -0.854844 2.262937 0
M  V30 3 C 0.825921 -1.553184 3.339018 0
M  V30 4 C 0.789784 -2.917098 2.795703 0
M  V30 5 O 1.027308 -2.555462 1.436874 0
M  V30 6 C 1.424726 -3.796999 0.949835 0
M  V30 7 Eu -0.148035 -1.450201 0.377352 0 VAL=7
M  V30 8 N 0.605780 -1.834088 -1.435300 0
M  V30 9 C 1.377449 -2.481965 -2.099454 0
M  V30 10 S 2.341760 -3.500659 -2.808309 0
M  V30 11 N -1.209871 0.212644 -0.193921 0
M  V30 12 C -2.622478 0.479075 -0.567539 0
M  V30 13 C -3.165811 0.546408 -1.829910 0
M  V30 14 C -4.518177 0.766298 -1.963616 0
M  V30 15 C -5.413791 0.934259 -0.939198 0
M  V30 16 C -4.879938 0.876912 0.305166 0
M  V30 17 C -3.518440 0.659210 0.542376 0
M  V30 18 C -3.265154 0.845572 1.970951 0
M  V30 19 C -4.529012 0.506303 2.788872 0
M  V30 20 C -3.062835 2.342490 2.306036 0
M  V30 21 C -2.444855 0.449268 -3.079260 0
M  V30 22 C -3.292247 1.209528 -4.147231 0
M  V30 23 C -2.510394 -0.984642 -3.622876 0
M  V30 24 C -0.432349 1.398253 -0.199173 0
M  V30 25 C 0.856756 1.236004 -0.084474 0
M  V30 26 N 1.380844 -0.111726 0.031334 0
M  V30 27 C 2.860700 -0.152430 -0.191243 0
M  V30 28 C 3.132209 -0.021373 -1.596292 0
M  V30 29 C 4.494102 -0.124910 -1.959003 0
M  V30 30 C 5.557891 -0.330480 -1.090232 0
M  V30 31 C 5.215341 -0.430209 0.224347 0
M  V30 32 C 3.919923 -0.340207 0.629398 0
M  V30 33 C 3.816800 -0.435450 2.077633 0
M  V30 34 C 5.096696 0.276980 2.660576 0
M  V30 35 C 4.166733 -1.881043 2.461748 0
M  V30 36 C 2.543092 0.472095 -2.815614 0
M  V30 37 C 3.112517 -0.234178 -4.034636 0
M  V30 38 C 1.183370 0.779137 -3.121630 0
M  V30 39 C 1.477496 2.588791 -0.090937 0
M  V30 40 C 2.744332 3.121742 0.003507 0
M  V30 41 C 3.022689 4.457100 -0.020423 0
M  V30 42 C 1.962140 5.342005 -0.147597 0
M  V30 43 C 0.684206 4.898945 -0.245541 0
M  V30 44 C -0.405010 5.733427 -0.373733 0
M  V30 45 C -1.623022 5.091580 -0.457301 0
M  V30 46 C -1.742640 3.723227 -0.412857 0
M  V30 47 C -0.656833 2.864647 -0.281168 0
M  V30 48 C 0.522172 3.566352 -0.212058 0
M  V30 49 O -1.756106 -1.996580 1.235490 0
M  V30 50 C -2.163764 -2.273645 2.472784 0
M  V30 51 C -2.758917 -2.806653 0.599853 0
M  V30 52 C -2.424584 -2.667188 -0.771458 0
M  V30 53 O -1.008283 -3.013345 -0.365748 0
M  V30 54 C -0.974617 -4.289880 -0.426307 0
M  V30 55 H -0.264930 1.160647 2.081542 0
M  V30 56 H -0.537832 0.405374 3.646434 0
M  V30 57 H 1.093789 0.812774 3.131724 0
M  V30 58 H 1.751724 -1.112744 3.652080 0
M  V30 59 H 0.081625 -1.413833 4.201960 0
M  V30 60 H 1.784381 -3.352297 3.042666 0
M  V30 61 H -0.030283 -3.570219 2.964483 0
M  V30 62 H 2.344185 -4.024932 1.619177 0
M  V30 63 H 0.708695 -4.551332 1.272719 0
M  V30 64 H 1.817920 -3.848381 -0.028744 0
M  V30 65 H -4.992125 0.813719 -2.942315 0
M  V30 66 H -6.466939 1.103565 -1.147241 0
M  V30 67 H -5.666949 1.026528 1.063167 0
M  V30 68 H -2.471046 0.341149 2.431257 0
M  V30 69 H -5.013414 -0.360048 2.317633 0
M  V30 70 H -5.149126 1.385686 2.925077 0
M  V30 71 H -4.180571 0.216839 3.830931 0
M  V30 72 H -3.339020 2.518693 3.382550 0
M  V30 73 H -3.702917 2.981850 1.688521 0
M  V30 74 H -2.018999 2.657250 2.235932 0
M  V30 75 H -1.491835 0.900256 -3.122756 0
M  V30 76 H -2.578682 1.494595 -4.949638 0
M  V30 77 H -3.701721 2.132141 -3.754109 0
M  V30 78 H -4.012141 0.535770 -4.602250 0
M  V30 79 H -2.746117 -0.995690 -4.725335 0
M  V30 80 H -1.625099 -1.560756 -3.380240 0
M  V30 81 H -3.397866 -1.531882 -3.188039 0
M  V30 82 H 4.982470 -0.052030 -2.957315 0
M  V30 83 H 6.597948 -0.430421 -1.329463 0
M  V30 84 H 6.032104 -0.594520 0.910976 0
M  V30 85 H 3.050218 0.068931 2.562425 0
M  V30 86 H 5.435769 1.036251 1.954486 0
M  V30 87 H 5.881015 -0.450081 2.839270 0
M  V30 88 H 4.811633 0.715203 3.655600 0
M  V30 89 H 3.788834 -2.484509 1.632907 0
M  V30 90 H 5.287245 -1.969495 2.376421 0
M  V30 91 H 3.794091 -2.176184 3.423666 0
M  V30 92 H 3.109148 1.554812 -3.040277 0
M  V30 93 H 2.255897 -0.664307 -4.613741 0
M  V30 94 H 3.678810 0.406922 -4.704814 0
M  V30 95 H 3.678446 -1.124387 -3.703355 0
M  V30 96 H 0.391553 0.192067 -2.695555 0
M  V30 97 H 0.936218 1.861835 -2.854074 0
M  V30 98 H 0.952478 0.777291 -4.234164 0
M  V30 99 H 3.535100 2.381213 0.104309 0
M  V30 100 H 4.071474 4.726869 0.063224 0
M  V30 101 H 2.184559 6.398821 -0.168179 0
M  V30 102 H -0.251710 6.785374 -0.402025 0
M  V30 103 H -2.535813 5.678303 -0.561378 0
M  V30 104 H -2.672061 3.161002 -0.466314 0
M  V30 105 H -3.281091 -1.958585 2.536023 0
M  V30 106 H -2.223969 -3.385603 2.597743 0
M  V30 107 H -1.661698 -1.906167 3.346639 0
M  V30 108 H -2.649688 -3.777137 1.034875 0
M  V30 109 H -3.748779 -2.400503 0.928600 0
M  V30 110 H -2.246167 -1.649948 -1.095425 0
M  V30 111 H -2.643161 -3.388163 -1.522755 0
M  V30 112 H -1.465962 -4.525907 -1.482876 0
M  V30 113 H -1.382919 -4.925285 0.328250 0
M  V30 114 H 0.027368 -4.761841 -0.740413 0
M  V30 END ATOM
M  V30 BEGIN BOND
M  V30 1 1 1 2
M  V30 2 1 2 3
M  V30 3 1 3 4
M  V30 4 1 4 5
M  V30 5 1 5 6
M  V30 6 9 5 7
M  V30 7 1 7 8
M  V30 8 2 8 9
M  V30 9 2 9 10
M  V30 10 1 7 11
M  V30 11 1 11 12
M  V30 12 2 12 13
M  V30 13 1 13 14
M  V30 14 2 14 15
M  V30 15 1 15 16
M  V30 16 2 16 17
M  V30 17 1 17 18
M  V30 18 1 18 19
M  V30 19 1 18 20
M  V30 20 1 13 21
M  V30 21 1 21 22
M  V30 22 1 21 23
M  V30 23 1 11 24
M  V30 24 2 24 25
M  V30 25 1 25 26
M  V30 26 1 26 27
M  V30 27 2 27 28
M  V30 28 1 28 29
M  V30 29 2 29 30
M  V30 30 1 30 31
M  V30 31 2 31 32
M  V30 32 1 32 33
M  V30 33 1 33 34
M  V30 34 1 33 35
M  V30 35 1 28 36
M  V30 36 1 36 37
M  V30 37 1 36 38
M  V30 38 1 25 39
M  V30 39 2 39 40
M  V30 40 1 40 41
M  V30 41 2 41 42
M  V30 42 1 42 43
M  V30 43 2 43 44
M  V30 44 1 44 45
M  V30 45 2 45 46
M  V30 46 1 46 47
M  V30 47 2 47 48
M  V30 48 9 49 7
M  V30 49 1 49 50
M  V30 50 1 49 51
M  V30 51 1 51 52
M  V30 52 1 52 53
M  V30 53 1 53 54
M  V30 54 9 2 7
M  V30 55 1 17 12
M  V30 56 1 47 24
M  V30 57 1 26 7
M  V30 58 1 32 27
M  V30 59 1 48 39
M  V30 60 9 53 7
M  V30 61 1 48 43
M  V30 62 1 1 55
M  V30 63 1 1 56
M  V30 64 1 1 57
M  V30 65 1 3 58
M  V30 66 1 3 59
M  V30 67 1 4 60
M  V30 68 1 4 61
M  V30 69 1 6 62
M  V30 70 1 6 63
M  V30 71 1 6 64
M  V30 72 1 14 65
M  V30 73 1 15 66
M  V30 74 1 16 67
M  V30 75 1 18 68
M  V30 76 1 19 69
M  V30 77 1 19 70
M  V30 78 1 19 71
M  V30 79 1 20 72
M  V30 80 1 20 73
M  V30 81 1 20 74
M  V30 82 1 21 75
M  V30 83 1 22 76
M  V30 84 1 22 77
M  V30 85 1 22 78
M  V30 86 1 23 79
M  V30 87 1 23 80
M  V30 88 1 23 81
M  V30 89 1 29 82
M  V30 90 1 30 83
M  V30 91 1 31 84
M  V30 92 1 33 85
M  V30 93 1 34 86
M  V30 94 1 34 87
M  V30 95 1 34 88
M  V30 96 1 35 89
M  V30 97 1 35 90
M  V30 98 1 35 91
M  V30 99 1 36 92
M  V30 100 1 37 93
M  V30 101 1 37 94
M  V30 102 1 37 95
M  V30 103 1 38 96
M  V30 104 1 38 97
M  V30 105 1 38 98
M  V30 106 1 40 99
M  V30 107 1 41 100
M  V30 108 1 42 101
M  V30 109 1 44 102
M  V30 110 1 45 103
M  V30 111 1 46 104
M  V30 112 1 50 105
M  V30 113 1 50 106
M  V30 114 1 50 107
M  V30 115 1 51 108
M  V30 116 1 51 109
M  V30 117 1 52 110
M  V30 118 1 52 111
M  V30 119 1 54 112
M  V30 120 1 54 113
M  V30 121 1 54 114
M  V30 END BOND
M  V30 END CTAB
M  END
