
  --CCDC--092525    3D                              

 26 29  0  0  0  0  0  0  0  0999 V2000
    1.3152   -2.4344    1.9637 H      0
    0.4864   -1.9143    1.4834 C      0
    0.8674   -1.1449    0.3469 C      0
    2.2950   -1.0016    0.1070 C      0
    2.7333   -0.4051   -0.8634 O      0
    3.1604   -1.4614    1.2402 C      0
    2.7503   -1.0379    2.1608 H      0
    4.1829   -1.1078    1.1348 H      0
    3.1519   -2.5504    1.3294 H      0
   -0.0922   -0.2528   -0.4083 C      0
   -0.4374   -0.1933   -1.4451 H      0
   -0.7469   -0.1072    0.9330 C      0
   -0.6401   -0.6693    1.9803 H      0
   -2.2191   -0.5164    1.0812 C      0
   -2.7758   -0.5127    0.1062 H      0
   -2.0965   -1.8384    1.8279 C      0
   -2.6370   -2.6917    1.3584 H      0
   -0.7231   -2.1843    2.1952 N      0
   -0.6252   -2.7909    3.0167 H      0
   -1.2188   -1.9776   -0.0271 Fe     0
   -0.6920   -4.0785    0.3590 C      0
   -0.4197   -5.1642    0.5586 O      0
   -0.0971   -2.9153   -1.6699 C      0
    0.4766   -3.3710   -2.5402 O      0
   -2.7039   -2.7693   -1.4460 C      0
   -3.4605   -3.1864   -2.1889 O      0
  1  2  1
  2  3  2
  3  4  1
  4  5  2
  4  6  1
  6  7  1
  6  8  1
  6  9  1
  3 10  1
 10 11  1
 10 12  2
 12 13  1
 12 14  1
 14 15  1
 14 16  2
 16 17  1
 16 18  1
  2 18  1
 18 19  1
 16 20  1
 14 20  1
 12 20  1
 10 20  1
 20 21  1
 21 22  3
 20 23  1
 23 24  3
 20 25  1
 25 26  3
M  END
$$$$
