
 OpenBabel09252515433D

 23 24  0  0  1  0  0  0  0  0999 V2000
    9.9078   -1.0420   -7.7137 H   0  0  0  0  0  0  0  0  0  0  0  0
    9.3073   -0.4476   -7.0347 C   0  0  0  0  0  3  0  0  0  0  0  0
    9.8249   -0.1193   -5.7161 C   0  0  0  0  0  3  0  0  0  0  0  0
   10.8161   -0.4635   -5.4411 H   0  0  0  0  0  0  0  0  0  0  0  0
    8.9145    0.3238   -4.6652 C   0  0  0  0  0  3  0  0  0  0  0  0
    9.2810    0.3285   -3.6427 H   0  0  0  0  0  0  0  0  0  0  0  0
    7.4558    0.3487   -4.9052 C   0  0  0  0  0  3  0  0  0  0  0  0
    6.4338   -0.2611   -3.5921 S   0  0  0  0  0  0  0  0  0  0  0  0
    6.2496   -1.6890   -3.8057 O   0  0  0  0  0  0  0  0  0  0  0  0
    7.0281    0.1819   -2.3380 O   0  0  0  0  0  0  0  0  0  0  0  0
    4.8185    0.5158   -3.6810 C   0  0  2  0  0  0  0  0  0  0  0  0
    4.1248    0.0674   -2.9602 H   0  0  0  0  0  0  0  0  0  0  0  0
    4.2851    0.4462   -5.0528 N   0  0  0  0  0  0  0  0  0  0  0  0
    3.6799   -0.2553   -5.4609 H   0  0  0  0  0  0  0  0  0  0  0  0
    3.8756    1.7439   -5.0347 C   0  0  0  0  0  0  0  0  0  0  0  0
    3.0836    2.3191   -5.7367 O   0  0  0  0  0  0  0  0  0  0  0  0
    4.7386    2.0410   -3.7914 C   0  0  0  0  0  0  0  0  0  0  0  0
    4.1971    2.5291   -2.9773 H   0  0  0  0  0  0  0  0  0  0  0  0
    5.6623    2.5803   -4.0108 H   0  0  0  0  0  0  0  0  0  0  0  0
    7.0115    0.2820   -6.3047 C   0  0  0  0  0  3  0  0  0  0  0  0
    6.1548    0.8553   -6.6345 H   0  0  0  0  0  0  0  0  0  0  0  0
    7.9068   -0.2177   -7.3375 C   0  0  0  0  0  3  0  0  0  0  0  0
    7.5182   -0.4496   -8.3219 H   0  0  0  0  0  0  0  0  0  0  0  0
  1  2  1  0  0  0  0
  2  3  1  0  0  0  0
  2 22  1  0  0  0  0
  3  4  1  0  0  0  0
  3  5  1  0  0  0  0
  5  6  1  0  0  0  0
  5  7  1  0  0  0  0
  7  8  1  0  0  0  0
  7 20  1  0  0  0  0
  8  9  2  0  0  0  0
  8 10  2  0  0  0  0
 11 13  1  0  0  0  0
 11 17  1  0  0  0  0
 11 12  1  1  0  0  0
 11  8  1  0  0  0  0
 13 14  1  0  0  0  0
 13 15  1  0  0  0  0
 15 16  2  0  0  0  0
 15 17  1  0  0  0  0
 17 18  1  0  0  0  0
 17 19  1  0  0  0  0
 20 21  1  0  0  0  0
 20 22  1  0  0  0  0
 22 23  1  0  0  0  0
M  END
$$$$
