
 OpenBabel09252514073D

 26 26  0  0  0  0  0  0  0  0999 V2000
    1.0090    0.1551   -0.1960 C   0  0  0  0  0  0  0  0  0  0  0  0
    0.3951   -0.9099   -1.0999 C   0  0  0  0  0  0  0  0  0  0  0  0
    1.0479   -2.2779   -0.9431 C   0  0  0  0  0  0  0  0  0  0  0  0
   -1.0423   -0.9974   -0.9758 O   0  0  0  0  0  0  0  0  0  0  0  0
   -1.5940   -1.2859    0.2255 C   0  0  0  0  0  0  0  0  0  0  0  0
   -1.0148   -1.4611    1.2837 O   0  0  0  0  0  0  0  0  0  0  0  0
   -3.0721   -1.3185    0.1003 C   0  0  0  0  0  0  0  0  0  0  0  0
   -3.8414   -1.0011    1.2291 C   0  0  0  0  0  0  0  0  0  0  0  0
   -5.2375   -1.0395    1.1649 C   0  0  0  0  0  0  0  0  0  0  0  0
   -5.8631   -1.4119   -0.0329 C   0  0  0  0  0  0  0  0  0  0  0  0
   -5.1013   -1.7383   -1.1644 C   0  0  0  0  0  0  0  0  0  0  0  0
   -3.7049   -1.6883   -1.0955 C   0  0  0  0  0  0  0  0  0  0  0  0
   -7.3294   -1.4680   -0.1012 N   0  0  0  0  0  0  0  0  0  0  0  0
   -7.9666   -1.1210    0.9031 O   0  0  0  0  0  0  0  0  0  0  0  0
   -7.8415   -1.8592   -1.1596 O   0  0  0  0  0  0  0  0  0  0  0  0
    0.9951   -0.1393    0.8574 H   0  0  0  0  0  0  0  0  0  0  0  0
    0.4544    1.0956   -0.2765 H   0  0  0  0  0  0  0  0  0  0  0  0
    2.0531    0.3387   -0.4696 H   0  0  0  0  0  0  0  0  0  0  0  0
    0.5625   -0.5851   -2.1340 H   0  0  0  0  0  0  0  0  0  0  0  0
    0.9292   -2.6724    0.0704 H   0  0  0  0  0  0  0  0  0  0  0  0
    0.5819   -3.0003   -1.6219 H   0  0  0  0  0  0  0  0  0  0  0  0
    2.1181   -2.2291   -1.1671 H   0  0  0  0  0  0  0  0  0  0  0  0
   -3.3527   -0.7209    2.1616 H   0  0  0  0  0  0  0  0  0  0  0  0
   -5.8156   -0.7840    2.0512 H   0  0  0  0  0  0  0  0  0  0  0  0
   -5.5753   -2.0358   -2.0982 H   0  0  0  0  0  0  0  0  0  0  0  0
   -3.1188   -1.9534   -1.9733 H   0  0  0  0  0  0  0  0  0  0  0  0
  1  2  1  0  0  0  0
  1 16  1  0  0  0  0
  1 17  1  0  0  0  0
  1 18  1  0  0  0  0
  2  3  1  0  0  0  0
  2  4  1  0  0  0  0
  2 19  1  0  0  0  0
  3 20  1  0  0  0  0
  3 21  1  0  0  0  0
  3 22  1  0  0  0  0
  4  5  1  0  0  0  0
  5  6  2  0  0  0  0
  5  7  1  0  0  0  0
  7  8  1  0  0  0  0
  7 12  2  0  0  0  0
  8  9  2  0  0  0  0
  8 23  1  0  0  0  0
  9 10  1  0  0  0  0
  9 24  1  0  0  0  0
 10 11  2  0  0  0  0
 10 13  1  0  0  0  0
 11 12  1  0  0  0  0
 11 25  1  0  0  0  0
 12 26  1  0  0  0  0
 13 14  2  0  0  0  0
 13 15  2  0  0  0  0
M  END
$$$$
