
  --CCDC--092525    3D                              

 22 25  0  0  0  0  0  0  0  0999 V2000
    2.0705   -1.2929   -0.0812 C      0
    1.2544   -0.1055   -0.4939 C      0
    0.0864   -0.0502   -0.1307 O      0
    1.8253    1.0150   -1.3384 C      0
    1.0685    2.0823   -1.7025 C      0
    1.5817    3.0858   -2.4717 N      0
    2.9314    3.0904   -2.9294 C      0
    3.0901    1.7801   -2.2145 C      0
    4.3538    0.5228   -1.9156 C      0
    3.2616    0.9669   -1.7998 C      0
    4.8418    2.1681   -3.0397 Fe     0
    6.9307    1.6018   -3.4303 C      0
    8.0127    1.3084   -3.6327 O      0
    5.2915    2.4558   -5.1702 C      0
    5.5118    2.5867   -6.2812 O      0
    6.1503    3.8956   -2.6784 C      0
    6.8263    4.7899   -2.4695 O      0
    3.0884   -1.2395   -0.4569 H      0
    1.6215   -2.2098   -0.4572 H      0
    2.1160   -1.3611    1.0037 H      0
    0.0325    2.1348   -1.3792 H      0
    0.9788    3.8698   -2.7106 H      0
  1  2  1
  2  3  2
  2  4  1
  4  5  2
  5  6  1
  6  7  1
  7  8  2
  8  9  1
  9 10  2
  4 10  1
 10 11  1
  7 11  1
  8 11  1
  9 11  1
 11 12  1
 12 13  3
 11 14  1
 14 15  3
 11 16  1
 16 17  3
  1 18  1
  1 19  1
  1 20  1
  5 21  1
  6 22  1
M  END
$$$$
