
     RDKit          3D

 28 28  0  0  0  0  0  0  0  0999 V2000
    0.4777   -0.2674    0.5726 C   0  0  0  0  0  0  0  0  0  0  0  0
    1.8872    0.0745    0.8447 C   0  0  0  0  0  0  0  0  0  0  0  0
    2.4564   -0.1455    2.0623 C   0  0  0  0  0  0  0  0  0  0  0  0
    1.7392   -0.7195    3.1544 C   0  0  0  0  0  0  0  0  0  0  0  0
    1.1449   -1.1917    4.0325 N   0  0  0  0  0  0  0  0  0  0  0  0
    3.8151    0.2015    2.3284 C   0  0  0  0  0  0  0  0  0  0  0  0
    4.9207    0.4903    2.5311 N   0  0  0  0  0  0  0  0  0  0  0  0
    2.6941    0.6682   -0.3102 C   0  0  0  0  0  0  0  0  0  0  0  0
    2.5009    2.1745   -0.4419 C   0  0  0  0  0  0  0  0  0  0  0  0
   -0.1933   -0.0832   -0.5779 C   0  0  0  0  0  0  0  0  0  0  0  0
   -1.6083   -0.4460   -0.7566 C   0  0  0  0  0  0  0  0  0  0  0  0
   -2.1345   -1.6558   -0.2783 C   0  0  0  0  0  0  0  0  0  0  0  0
   -3.4770   -1.9775   -0.4932 C   0  0  0  0  0  0  0  0  0  0  0  0
   -4.2898   -1.0961   -1.1946 C   0  0  0  0  0  0  0  0  0  0  0  0
   -5.5761   -1.4061   -1.4017 F   0  0  0  0  0  0  0  0  0  0  0  0
   -3.7853    0.0996   -1.6897 C   0  0  0  0  0  0  0  0  0  0  0  0
   -2.4432    0.4224   -1.4757 C   0  0  0  0  0  0  0  0  0  0  0  0
   -0.0857   -0.7016    1.3999 H   0  0  0  0  0  0  0  0  0  0  0  0
    2.4439    0.1709   -1.2547 H   0  0  0  0  0  0  0  0  0  0  0  0
    3.7653    0.4681   -0.1893 H   0  0  0  0  0  0  0  0  0  0  0  0
    2.8193    2.6946    0.4677 H   0  0  0  0  0  0  0  0  0  0  0  0
    1.4558    2.4362   -0.6336 H   0  0  0  0  0  0  0  0  0  0  0  0
    3.0999    2.5576   -1.2744 H   0  0  0  0  0  0  0  0  0  0  0  0
    0.2649    0.3736   -1.4499 H   0  0  0  0  0  0  0  0  0  0  0  0
   -1.5062   -2.3643    0.2566 H   0  0  0  0  0  0  0  0  0  0  0  0
   -3.8899   -2.9103   -0.1223 H   0  0  0  0  0  0  0  0  0  0  0  0
   -4.4373    0.7715   -2.2387 H   0  0  0  0  0  0  0  0  0  0  0  0
   -2.0585    1.3616   -1.8675 H   0  0  0  0  0  0  0  0  0  0  0  0
  1  2  1  0
  2  3  2  0
  3  4  1  0
  4  5  3  0
  3  6  1  0
  6  7  3  0
  2  8  1  0
  8  9  1  0
  1 10  2  0
 10 11  1  0
 11 12  2  0
 12 13  1  0
 13 14  2  0
 14 15  1  0
 14 16  1  0
 16 17  2  0
 17 11  1  0
  1 18  1  0
  8 19  1  0
  8 20  1  0
  9 21  1  0
  9 22  1  0
  9 23  1  0
 10 24  1  0
 12 25  1  0
 13 26  1  0
 16 27  1  0
 17 28  1  0
M  END
