
 OpenBabel09252514073D

 28 28  0  0  0  0  0  0  0  0999 V2000
    1.1897   -0.1365    0.4002 H   0  0  0  0  0  0  0  0  0  0  0  0
    2.2500    0.1027    0.2930 C   0  0  0  0  0  0  0  0  0  0  0  0
    2.9359    0.4982    1.5383 C   0  0  0  0  0  0  0  0  0  0  0  0
    2.4624    0.0076    2.7193 C   0  0  0  0  0  0  0  0  0  0  0  0
    1.3533   -0.8999    2.7660 C   0  0  0  0  0  0  0  0  0  0  0  0
    0.4497   -1.6281    2.7837 N   0  0  0  0  0  0  0  0  0  0  0  0
    3.0279    0.2938    3.9923 C   0  0  0  0  0  0  0  0  0  0  0  0
    3.4689    0.5039    5.0460 N   0  0  0  0  0  0  0  0  0  0  0  0
    4.1239    1.4350    1.3120 C   0  0  0  0  0  0  0  0  0  0  0  0
    4.8421    0.9338    0.6513 H   0  0  0  0  0  0  0  0  0  0  0  0
    3.7549    2.3145    0.7661 H   0  0  0  0  0  0  0  0  0  0  0  0
    4.9389    1.9578    2.4884 C   0  0  0  0  0  0  0  0  0  0  0  0
    4.3244    2.5440    3.1780 H   0  0  0  0  0  0  0  0  0  0  0  0
    5.4278    1.1409    3.0282 H   0  0  0  0  0  0  0  0  0  0  0  0
    5.7330    2.6186    2.1239 H   0  0  0  0  0  0  0  0  0  0  0  0
    2.7921   -0.1203   -0.9182 C   0  0  0  0  0  0  0  0  0  0  0  0
    3.8482    0.0201   -1.1249 H   0  0  0  0  0  0  0  0  0  0  0  0
    2.0279   -0.8407   -1.9415 C   0  0  0  0  0  3  0  0  0  0  0  0
    2.4844   -2.1915   -2.3366 C   0  0  0  0  0  3  0  0  0  0  0  0
    3.5047   -2.3489   -2.6622 H   0  0  0  0  0  0  0  0  0  0  0  0
    1.5777   -3.3223   -2.1763 C   0  0  0  0  0  3  0  0  0  0  0  0
    1.9633   -4.3276   -2.0742 H   0  0  0  0  0  0  0  0  0  0  0  0
    0.1636   -3.0704   -1.9707 C   0  0  0  0  0  3  0  0  0  0  0  0
   -0.6443   -4.0910   -1.6307 F   0  0  0  0  0  0  0  0  0  0  0  0
   -0.3447   -1.7126   -1.9150 C   0  0  0  0  0  3  0  0  0  0  0  0
   -1.3328   -1.5262   -1.5152 H   0  0  0  0  0  0  0  0  0  0  0  0
    0.5802   -0.6063   -2.1355 C   0  0  0  0  0  3  0  0  0  0  0  0
    0.2441    0.2902   -2.6416 H   0  0  0  0  0  0  0  0  0  0  0  0
  1  2  1  0  0  0  0
  2  3  1  0  0  0  0
  2 16  2  0  0  0  0
  3  4  2  0  0  0  0
  3  9  1  0  0  0  0
  4  5  1  0  0  0  0
  4  7  1  0  0  0  0
  5  6  3  0  0  0  0
  7  8  3  0  0  0  0
  9 10  1  0  0  0  0
  9 11  1  0  0  0  0
  9 12  1  0  0  0  0
 12 13  1  0  0  0  0
 12 14  1  0  0  0  0
 12 15  1  0  0  0  0
 16 17  1  0  0  0  0
 16 18  1  0  0  0  0
 18 19  1  0  0  0  0
 18 27  1  0  0  0  0
 19 20  1  0  0  0  0
 19 21  1  0  0  0  0
 21 22  1  0  0  0  0
 21 23  1  0  0  0  0
 23 24  1  0  0  0  0
 23 25  1  0  0  0  0
 25 26  1  0  0  0  0
 25 27  1  0  0  0  0
 27 28  1  0  0  0  0
M  END
$$$$
