
 OpenBabel09252515133D

 73 85  0  0  0  0  0  0  0  0999 V2000
    0.9441    0.0305   -0.0772 Cl  0  0  0  0  0  0  0  0  0  0  0  0
    3.7141    0.0305   -0.0772 Zr  0  0  0  0  0  0  0  0  0  0  0  0
    2.4594   -1.7940   -1.7414 Cl  0  0  0  0  0  0  0  0  0  0  0  0
    2.1235   -1.1202   -1.5959 C   0  0  0  0  0  0  0  0  0  0  0  0
    4.2079   -1.0351   -1.8085 C   0  0  0  0  0  0  0  0  0  0  0  0
    5.4503   -0.4835   -1.7551 C   0  0  0  0  0  0  0  0  0  0  0  0
    6.5164   -1.2851   -1.5035 C   0  0  0  0  0  0  0  0  0  0  0  0
    6.3624   -2.4630   -0.8110 C   0  0  0  0  0  0  0  0  0  0  0  0
    5.1131   -3.0262   -0.6793 C   0  0  0  0  0  0  0  0  0  0  0  0
    3.9925   -2.2907   -0.9048 C   0  0  0  0  0  0  0  0  0  0  0  0
    4.0669   -0.8383   -1.2894 C   0  0  0  0  0  0  0  0  0  0  0  0
    3.0602   -0.5643   -2.4110 C   0  0  0  0  0  0  0  0  0  0  0  0
    3.1274    0.9107   -2.8078 Si  0  0  0  0  0  0  0  0  0  0  0  0
    1.9050    1.2428   -4.1834 C   0  0  0  0  0  0  0  0  0  0  0  0
    4.8544    1.3198   -3.3968 C   0  0  0  0  0  0  0  0  0  0  0  0
    2.7818    1.7808   -1.5968 Si  0  0  0  0  0  0  0  0  0  0  0  0
    2.8654    3.5854   -2.0799 C   0  0  0  0  0  0  0  0  0  0  0  0
    1.0539    1.3738   -1.0089 C   0  0  0  0  0  0  0  0  0  0  0  0
    3.7817    1.5061   -0.4718 C   0  0  0  0  0  0  0  0  0  0  0  0
    6.5530    0.4948    2.6171 C   0  0  0  0  0  3  0  0  0  0  0  0
    5.5830    0.8452    1.5006 C   0  0  0  0  0  0  0  0  0  0  0  0
    5.4664    2.1337    1.0802 C   0  0  0  0  0  0  0  0  0  0  0  0
    6.2074    3.0803    1.6544 C   0  0  0  0  0  0  0  0  0  0  0  0
    6.1141    4.3443    1.2646 C   0  0  0  0  0  0  0  0  0  0  0  0
    5.2196    4.6899    0.2297 C   0  0  0  0  0  0  0  0  0  0  0  0
    4.4780    3.7164   -0.3478 C   0  0  0  0  0  0  0  0  0  0  0  0
    4.6042    2.4323    0.0907 C   0  0  0  0  0  0  0  0  0  0  0  0
    4.5498   -0.4950    0.7047 Si  0  0  0  0  0  0  0  0  0  0  0  0
    2.7359   -0.1057    0.9392 C   0  0  0  0  0  0  0  0  0  0  0  0
    4.9382   -0.5791   -1.1226 C   0  0  0  0  0  0  0  0  0  0  0  0
    4.9423   -2.1406    1.5017 C   0  0  0  0  0  0  0  0  0  0  0  0
    2.7199    0.0438   -2.1532 Si  0  0  0  0  0  0  0  0  0  0  0  0
    2.5769    1.3515   -0.8243 C   0  0  0  0  0  0  0  0  0  0  0  0
    2.9203    0.8680   -3.8198 C   0  0  0  0  0  0  0  0  0  0  0  0
    1.1747   -1.0093   -2.1604 C   0  0  0  0  0  0  0  0  0  0  0  0
    7.4877   -0.9971   -1.8479 H   0  0  0  0  0  0  0  0  0  0  0  0
    7.2138   -2.9420   -0.3744 H   0  0  0  0  0  0  0  0  0  0  0  0
    5.0233   -4.0542   -0.3964 H   0  0  0  0  0  0  0  0  0  0  0  0
    3.0341   -2.7561   -0.8063 H   0  0  0  0  0  0  0  0  0  0  0  0
    1.9521    2.2751   -4.4610 H   0  0  0  0  0  0  0  0  0  0  0  0
    2.1466    0.6345   -5.0299 H   0  0  0  0  0  0  0  0  0  0  0  0
    0.9167    1.0088   -3.8465 H   0  0  0  0  0  0  0  0  0  0  0  0
    5.5540    1.1299   -2.6098 H   0  0  0  0  0  0  0  0  0  0  0  0
    5.0960    0.7114   -4.2432 H   0  0  0  0  0  0  0  0  0  0  0  0
    4.9014    2.3520   -3.6745 H   0  0  0  0  0  0  0  0  0  0  0  0
    2.1661    3.7766   -2.8669 H   0  0  0  0  0  0  0  0  0  0  0  0
    2.6240    4.1929   -1.2329 H   0  0  0  0  0  0  0  0  0  0  0  0
    3.8538    3.8191   -2.4165 H   0  0  0  0  0  0  0  0  0  0  0  0
    1.0051    0.3412   -0.7328 H   0  0  0  0  0  0  0  0  0  0  0  0
    0.8131    1.9813   -0.1616 H   0  0  0  0  0  0  0  0  0  0  0  0
    0.3549    1.5659   -1.7958 H   0  0  0  0  0  0  0  0  0  0  0  0
    6.8857    2.8176    2.4392 H   0  0  0  0  0  0  0  0  0  0  0  0
    6.7134    5.0975    1.7320 H   0  0  0  0  0  0  0  0  0  0  0  0
    5.1291    5.7058   -0.0935 H   0  0  0  0  0  0  0  0  0  0  0  0
    3.7995    3.9524   -1.1408 H   0  0  0  0  0  0  0  0  0  0  0  0
    2.5113    0.8358    0.4832 H   0  0  0  0  0  0  0  0  0  0  0  0
    2.1447   -0.8726    0.4838 H   0  0  0  0  0  0  0  0  0  0  0  0
    2.5137   -0.0576    1.9848 H   0  0  0  0  0  0  0  0  0  0  0  0
    5.9761   -0.8018   -1.2567 H   0  0  0  0  0  0  0  0  0  0  0  0
    4.3470   -1.3459   -1.5780 H   0  0  0  0  0  0  0  0  0  0  0  0
    4.7136    0.3625   -1.5786 H   0  0  0  0  0  0  0  0  0  0  0  0
    5.9802   -2.3633    1.3675 H   0  0  0  0  0  0  0  0  0  0  0  0
    4.7200   -2.0925    2.5473 H   0  0  0  0  0  0  0  0  0  0  0  0
    4.3511   -2.9074    1.0463 H   0  0  0  0  0  0  0  0  0  0  0  0
    3.4611    1.9541   -0.8202 H   0  0  0  0  0  0  0  0  0  0  0  0
    1.7255    1.9689   -1.0215 H   0  0  0  0  0  0  0  0  0  0  0  0
    2.4623    0.8800    0.1293 H   0  0  0  0  0  0  0  0  0  0  0  0
    3.0021    0.1197   -4.5802 H   0  0  0  0  0  0  0  0  0  0  0  0
    2.0688    1.4853   -4.0171 H   0  0  0  0  0  0  0  0  0  0  0  0
    3.8044    1.4706   -3.8157 H   0  0  0  0  0  0  0  0  0  0  0  0
    1.2565   -1.7576   -2.9208 H   0  0  0  0  0  0  0  0  0  0  0  0
    1.0601   -1.4809   -1.2068 H   0  0  0  0  0  0  0  0  0  0  0  0
    0.3233   -0.3920   -2.3576 H   0  0  0  0  0  0  0  0  0  0  0  0
  1  2  1  0  0  0  0
  2  3  1  0  0  0  0
  2  4  1  0  0  0  0
  2  5  1  0  0  0  0
  2  6  1  0  0  0  0
  2 11  1  0  0  0  0
  2 12  1  0  0  0  0
  2 19  1  0  0  0  0
  2 20  1  0  0  0  0
  2 21  1  0  0  0  0
  2 22  1  0  0  0  0
  2 27  1  0  0  0  0
  4  5  1  0  0  0  0
  4 12  2  0  0  0  0
  5  6  2  0  0  0  0
  5 32  1  0  0  0  0
  6  7  1  0  0  0  0
  6 11  1  0  0  0  0
  7  8  2  0  0  0  0
  7 36  1  0  0  0  0
  8  9  1  0  0  0  0
  8 37  1  0  0  0  0
  9 10  2  0  0  0  0
  9 38  1  0  0  0  0
 10 11  1  0  0  0  0
 10 39  1  0  0  0  0
 11 12  1  0  0  0  0
 12 13  1  0  0  0  0
 13 14  1  0  0  0  0
 13 15  1  0  0  0  0
 13 16  1  0  0  0  0
 14 40  1  0  0  0  0
 14 41  1  0  0  0  0
 14 42  1  0  0  0  0
 15 43  1  0  0  0  0
 15 44  1  0  0  0  0
 15 45  1  0  0  0  0
 16 17  1  0  0  0  0
 16 18  1  0  0  0  0
 16 19  1  0  0  0  0
 17 46  1  0  0  0  0
 17 47  1  0  0  0  0
 17 48  1  0  0  0  0
 18 49  1  0  0  0  0
 18 50  1  0  0  0  0
 18 51  1  0  0  0  0
 19 20  1  0  0  0  0
 19 27  2  0  0  0  0
 20 21  1  0  0  0  0
 21 22  2  0  0  0  0
 21 28  1  0  0  0  0
 22 23  1  0  0  0  0
 22 27  1  0  0  0  0
 23 24  2  0  0  0  0
 23 52  1  0  0  0  0
 24 25  1  0  0  0  0
 24 53  1  0  0  0  0
 25 26  2  0  0  0  0
 25 54  1  0  0  0  0
 26 27  1  0  0  0  0
 26 55  1  0  0  0  0
 28 29  1  0  0  0  0
 28 30  1  0  0  0  0
 28 31  1  0  0  0  0
 29 56  1  0  0  0  0
 29 57  1  0  0  0  0
 29 58  1  0  0  0  0
 30 59  1  0  0  0  0
 30 60  1  0  0  0  0
 30 61  1  0  0  0  0
 31 62  1  0  0  0  0
 31 63  1  0  0  0  0
 31 64  1  0  0  0  0
 32 33  1  0  0  0  0
 32 34  1  0  0  0  0
 32 35  1  0  0  0  0
 33 65  1  0  0  0  0
 33 66  1  0  0  0  0
 33 67  1  0  0  0  0
 34 68  1  0  0  0  0
 34 69  1  0  0  0  0
 34 70  1  0  0  0  0
 35 71  1  0  0  0  0
 35 72  1  0  0  0  0
 35 73  1  0  0  0  0
M  END
$$$$
