
  --CCDC--092525    3D                              

 24 29  0  0  0  0  0  0  0  0999 V2000
    1.6304   -1.3622   -0.1593 H      0
    1.4312   -0.3184   -0.3934 C      0
    2.1031    0.2949    0.2031 H      0
    1.6707   -0.1420   -1.4378 H      0
   -0.0303    0.0515   -0.0986 C      0
   -1.2156    0.4351   -0.9442 C      0
   -0.9112    0.4814   -2.0476 H      0
   -2.4712    0.1052   -0.1554 C      0
   -3.3427   -0.0166   -0.8853 H      0
   -2.0151   -0.6361    1.1459 C      0
   -2.4941   -1.6589    1.2608 H      0
   -0.4753   -0.6660    1.1242 C      0
   -0.0165   -1.7035    1.1788 H      0
   -1.3186   -1.7150   -0.5426 Mn     0
   -3.1174   -3.0924   -0.8740 C      0
   -4.0124   -3.7776   -1.0389 O      0
   -0.9554   -3.7567    0.4287 C      0
   -0.7903   -4.7575    0.9510 O      0
   -1.2811   -2.4971   -2.2937 H      0
    0.0354   -3.3539   -2.2431 Si     0
    1.5286   -3.8991   -0.9221 Cl     0
   -0.5163   -5.3214   -1.9301 Cl     0
    1.6038   -2.2927   -3.0690 Cl     0
    0.0065   -3.8632   -3.6607 H      0
  1  2  1
  2  3  1
  2  4  1
  2  5  1
  5  6  4
  6  7  1
  6  8  4
  8  9  1
  8 10  4
 10 11  1
 10 12  4
  5 12  4
 12 13  1
 12 14  1
  8 14  1
 10 14  1
  6 14  1
  5 14  1
 14 15  1
 15 16  3
 14 17  1
 17 18  3
 14 19  1
 19 20  1
 14 20  1
 20 21  1
 20 22  1
 20 23  1
 20 24  1
M  END
$$$$
