
     RDKit          3D

 26 26  0  0  0  0  0  0  0  0999 V2000
    1.1003    0.2491    0.9426 C   0  0  0  0  0  0  0  0  0  0  0  0
    2.4200    0.3725    1.3925 C   0  0  0  0  0  0  0  0  0  0  0  0
    3.4795    0.1691    0.4978 C   0  0  0  0  0  0  0  0  0  0  0  0
    4.8652    0.2982    0.9680 N   0  0  0  0  0  4  0  0  0  0  0  0
    5.0439    0.5871    2.1596 O   0  0  0  0  0  1  0  0  0  0  0  0
    5.7725    0.1105    0.1454 O   0  0  0  0  0  0  0  0  0  0  0  0
    3.2270   -0.1561   -0.8412 C   0  0  0  0  0  0  0  0  0  0  0  0
    1.9053   -0.2776   -1.2829 C   0  0  0  0  0  0  0  0  0  0  0  0
    0.8352   -0.0765   -0.3967 C   0  0  0  0  0  0  0  0  0  0  0  0
   -0.5499   -0.2193   -0.9258 C   0  0  0  0  0  0  0  0  0  0  0  0
   -0.7974   -0.5018   -2.0867 O   0  0  0  0  0  0  0  0  0  0  0  0
   -1.4578    0.0082    0.0543 O   0  0  0  0  0  0  0  0  0  0  0  0
   -2.8426   -0.0960   -0.3279 C   0  0  0  0  0  0  0  0  0  0  0  0
   -3.6326   -0.4199    0.9342 C   0  0  0  0  0  0  0  0  0  0  0  0
   -3.3059    1.2253   -0.9307 C   0  0  0  0  0  0  0  0  0  0  0  0
    0.2884    0.4100    1.6492 H   0  0  0  0  0  0  0  0  0  0  0  0
    2.6016    0.6257    2.4357 H   0  0  0  0  0  0  0  0  0  0  0  0
    4.0384   -0.3172   -1.5487 H   0  0  0  0  0  0  0  0  0  0  0  0
    1.7121   -0.5307   -2.3251 H   0  0  0  0  0  0  0  0  0  0  0  0
   -2.9824   -0.9141   -1.0450 H   0  0  0  0  0  0  0  0  0  0  0  0
   -3.4925    0.3548    1.6963 H   0  0  0  0  0  0  0  0  0  0  0  0
   -3.2795   -1.3594    1.3731 H   0  0  0  0  0  0  0  0  0  0  0  0
   -4.7018   -0.5147    0.7214 H   0  0  0  0  0  0  0  0  0  0  0  0
   -4.3696    1.1929   -1.1857 H   0  0  0  0  0  0  0  0  0  0  0  0
   -3.1360    2.0541   -0.2344 H   0  0  0  0  0  0  0  0  0  0  0  0
   -2.7414    1.4591   -1.8392 H   0  0  0  0  0  0  0  0  0  0  0  0
  1  2  2  0
  2  3  1  0
  3  4  1  0
  4  5  1  0
  4  6  2  0
  3  7  2  0
  7  8  1  0
  8  9  2  0
  9 10  1  0
 10 11  2  0
 10 12  1  0
 12 13  1  0
 13 14  1  0
 13 15  1  0
  9  1  1  0
  1 16  1  0
  2 17  1  0
  7 18  1  0
  8 19  1  0
 13 20  1  0
 14 21  1  0
 14 22  1  0
 14 23  1  0
 15 24  1  0
 15 25  1  0
 15 26  1  0
M  CHG  2   4   1   5  -1
M  END
