
 OpenBabel09252513583D

 62 63  0  0  0  0  0  0  0  0999 V2000
    1.0070    0.0477    0.0876 C   0  0  0  0  0  0  0  0  0  0  0  0
    0.3004    0.9967   -1.6715 Pt  0  0  0  0  0  0  0  0  0  0  0  0
    2.0313    0.3544   -2.7134 C   0  0  0  0  0  0  0  0  0  0  0  0
   -0.6990   -0.7868   -2.2323 C   0  0  0  0  0  0  0  0  0  0  0  0
   -0.3896    1.9234   -3.3891 N   0  0  0  0  0  0  0  0  0  0  0  0
   -1.1981    1.2741   -4.7750 N   0  0  0  0  0  0  0  0  0  0  0  0
   -1.2348    2.7295   -5.7878 C   0  0  0  0  0  0  0  0  0  0  0  0
   -1.8738    2.8463   -7.1436 C   0  0  0  0  0  0  0  0  0  0  0  0
   -3.2270    3.5546   -6.9488 C   0  0  0  0  0  0  0  0  0  0  0  0
   -2.9762    4.8703   -6.2038 C   0  0  0  0  0  0  0  0  0  0  0  0
   -2.0821    5.6883   -7.1117 C   0  0  0  0  0  0  0  0  0  0  0  0
   -0.6086    5.3439   -6.9968 C   0  0  0  0  0  0  0  0  0  0  0  0
   -0.1935    5.0757   -5.5564 C   0  0  0  0  0  0  0  0  0  0  0  0
   -0.5836    3.6755   -5.0865 C   0  0  0  0  0  0  0  0  0  0  0  0
   -0.1540    3.2358   -3.7537 N   0  0  0  0  0  0  0  0  0  0  0  0
   -1.6837    1.7330   -0.4772 P   0  0  0  0  0  4  0  0  0  0  0  0
   -1.2770    1.9747    1.2906 C   0  0  0  0  0  0  0  0  0  0  0  0
   -2.2732    3.3125   -1.1891 C   0  0  0  0  0  0  0  0  0  0  0  0
   -2.9951    0.4662   -0.6338 C   0  0  0  0  0  0  0  0  0  0  0  0
    1.4459    3.0411   -1.0287 P   0  0  0  0  0  4  0  0  0  0  0  0
    0.8010    3.6209    0.5828 C   0  0  0  0  0  0  0  0  0  0  0  0
    3.2410    2.7155   -0.8859 C   0  0  0  0  0  0  0  0  0  0  0  0
    1.1583    4.3267   -2.2990 C   0  0  0  0  0  0  0  0  0  0  0  0
    0.6504   -0.9607    0.1167 H   0  0  0  0  0  0  0  0  0  0  0  0
    0.6504    0.5771    0.9463 H   0  0  0  0  0  0  0  0  0  0  0  0
    2.0770    0.0477    0.0876 H   0  0  0  0  0  0  0  0  0  0  0  0
    2.3760   -0.5691   -2.2972 H   0  0  0  0  0  0  0  0  0  0  0  0
    1.7936    0.2131   -3.7470 H   0  0  0  0  0  0  0  0  0  0  0  0
    2.7981    1.0951   -2.6218 H   0  0  0  0  0  0  0  0  0  0  0  0
   -1.7486   -0.5964   -2.3158 H   0  0  0  0  0  0  0  0  0  0  0  0
   -0.3219   -1.1258   -3.1745 H   0  0  0  0  0  0  0  0  0  0  0  0
   -0.5309   -1.5385   -1.4895 H   0  0  0  0  0  0  0  0  0  0  0  0
   -1.2480    3.3995   -7.8123 H   0  0  0  0  0  0  0  0  0  0  0  0
   -2.0260    1.8735   -7.5623 H   0  0  0  0  0  0  0  0  0  0  0  0
   -3.8921    2.9327   -6.3868 H   0  0  0  0  0  0  0  0  0  0  0  0
   -3.6705    3.7566   -7.9013 H   0  0  0  0  0  0  0  0  0  0  0  0
   -2.5245    4.7043   -5.2481 H   0  0  0  0  0  0  0  0  0  0  0  0
   -3.8993    5.3823   -6.0287 H   0  0  0  0  0  0  0  0  0  0  0  0
   -2.3750    5.4676   -8.1169 H   0  0  0  0  0  0  0  0  0  0  0  0
   -2.2066    6.7220   -6.8650 H   0  0  0  0  0  0  0  0  0  0  0  0
   -0.4337    4.4520   -7.5615 H   0  0  0  0  0  0  0  0  0  0  0  0
   -0.0325    6.1623   -7.3751 H   0  0  0  0  0  0  0  0  0  0  0  0
    0.8727    5.1505   -5.5058 H   0  0  0  0  0  0  0  0  0  0  0  0
   -0.6686    5.7952   -4.9227 H   0  0  0  0  0  0  0  0  0  0  0  0
   -0.5103    2.7154    1.3821 H   0  0  0  0  0  0  0  0  0  0  0  0
   -2.1507    2.2989    1.8164 H   0  0  0  0  0  0  0  0  0  0  0  0
   -0.9324    1.0512    1.7068 H   0  0  0  0  0  0  0  0  0  0  0  0
   -2.5110    3.1711   -2.2227 H   0  0  0  0  0  0  0  0  0  0  0  0
   -3.1468    3.6366   -0.6632 H   0  0  0  0  0  0  0  0  0  0  0  0
   -1.5064    4.0531   -1.0975 H   0  0  0  0  0  0  0  0  0  0  0  0
   -3.2329    0.3249   -1.6674 H   0  0  0  0  0  0  0  0  0  0  0  0
   -2.6504   -0.4573   -0.2176 H   0  0  0  0  0  0  0  0  0  0  0  0
   -3.8688    0.7904   -0.1079 H   0  0  0  0  0  0  0  0  0  0  0  0
    0.9691    2.8692    1.3255 H   0  0  0  0  0  0  0  0  0  0  0  0
    1.3054    4.5211    0.8658 H   0  0  0  0  0  0  0  0  0  0  0  0
   -0.2486    3.8113    0.4993 H   0  0  0  0  0  0  0  0  0  0  0  0
    3.6181    2.3765   -1.8281 H   0  0  0  0  0  0  0  0  0  0  0  0
    3.7454    3.6157   -0.6029 H   0  0  0  0  0  0  0  0  0  0  0  0
    3.4091    1.9638   -0.1432 H   0  0  0  0  0  0  0  0  0  0  0  0
    1.5354    3.9877   -3.2412 H   0  0  0  0  0  0  0  0  0  0  0  0
    0.1087    4.5171   -2.3825 H   0  0  0  0  0  0  0  0  0  0  0  0
    1.6627    5.2269   -2.0160 H   0  0  0  0  0  0  0  0  0  0  0  0
  1  2  1  0  0  0  0
  1 24  1  0  0  0  0
  1 25  1  0  0  0  0
  1 26  1  0  0  0  0
  2  3  1  0  0  0  0
  2  4  1  0  0  0  0
  2  5  1  0  0  0  0
  2 16  1  0  0  0  0
  2 20  1  0  0  0  0
  3 27  1  0  0  0  0
  3 28  1  0  0  0  0
  3 29  1  0  0  0  0
  4 30  1  0  0  0  0
  4 31  1  0  0  0  0
  4 32  1  0  0  0  0
  5  6  1  0  0  0  0
  5 15  1  0  0  0  0
  6  7  2  0  0  0  0
  7  8  1  0  0  0  0
  7 14  1  0  0  0  0
  8  9  1  0  0  0  0
  8 33  1  0  0  0  0
  8 34  1  0  0  0  0
  9 10  1  0  0  0  0
  9 35  1  0  0  0  0
  9 36  1  0  0  0  0
 10 11  1  0  0  0  0
 10 37  1  0  0  0  0
 10 38  1  0  0  0  0
 11 12  1  0  0  0  0
 11 39  1  0  0  0  0
 11 40  1  0  0  0  0
 12 13  1  0  0  0  0
 12 41  1  0  0  0  0
 12 42  1  0  0  0  0
 13 14  1  0  0  0  0
 13 43  1  0  0  0  0
 13 44  1  0  0  0  0
 14 15  2  0  0  0  0
 16 17  1  0  0  0  0
 16 18  1  0  0  0  0
 16 19  1  0  0  0  0
 17 45  1  0  0  0  0
 17 46  1  0  0  0  0
 17 47  1  0  0  0  0
 18 48  1  0  0  0  0
 18 49  1  0  0  0  0
 18 50  1  0  0  0  0
 19 51  1  0  0  0  0
 19 52  1  0  0  0  0
 19 53  1  0  0  0  0
 20 21  1  0  0  0  0
 20 22  1  0  0  0  0
 20 23  1  0  0  0  0
 21 54  1  0  0  0  0
 21 55  1  0  0  0  0
 21 56  1  0  0  0  0
 22 57  1  0  0  0  0
 22 58  1  0  0  0  0
 22 59  1  0  0  0  0
 23 60  1  0  0  0  0
 23 61  1  0  0  0  0
 23 62  1  0  0  0  0
M  END
$$$$
