
 OpenBabel09252515253D

 29 30  0  0  0  0  0  0  0  0999 V2000
    0.9467    0.0396   -0.0748 H   0  0  0  0  0  0  0  0  0  0  0  0
    2.0167    0.0396   -0.0748 C   0  0  0  0  0  0  0  0  0  0  0  0
    2.2911   -0.0108   -1.1078 H   0  0  0  0  0  0  0  0  0  0  0  0
    2.5529    1.2205    0.6268 N   0  0  0  0  0  0  0  0  0  0  0  0
    1.8627    2.5040    0.8198 C   0  0  0  0  0  0  0  0  0  0  0  0
    2.7232    3.9126    1.7554 Au  0  0  0  0  0  0  0  0  0  0  0  0
    3.8025    5.6795    2.9291 Cl  0  0  0  0  0  0  0  0  0  0  0  0
    0.5058    2.6961    0.2878 N   0  0  0  0  0  0  0  0  0  0  0  0
   -0.6890    1.9088    0.6440 C   0  0  0  0  0  0  0  0  0  0  0  0
   -1.2705    2.3389    1.4325 H   0  0  0  0  0  0  0  0  0  0  0  0
   -0.4219    0.9356    0.9995 H   0  0  0  0  0  0  0  0  0  0  0  0
   -1.4133    1.8306   -0.6714 C   0  0  0  0  0  0  0  0  0  0  0  0
   -1.0093    1.0923   -1.3321 H   0  0  0  0  0  0  0  0  0  0  0  0
   -2.4381    1.5569   -0.5305 H   0  0  0  0  0  0  0  0  0  0  0  0
   -1.2921    3.2825   -1.2246 C   0  0  0  0  0  0  0  0  0  0  0  0
   -1.3870    3.3342   -2.2891 H   0  0  0  0  0  0  0  0  0  0  0  0
   -2.0686    3.9072   -0.8352 H   0  0  0  0  0  0  0  0  0  0  0  0
    0.0809    3.7372   -0.7228 C   0  0  0  0  0  0  0  0  0  0  0  0
    0.7866    3.8262   -1.5222 H   0  0  0  0  0  0  0  0  0  0  0  0
    0.0105    4.6999   -0.2611 H   0  0  0  0  0  0  0  0  0  0  0  0
    3.9417    0.8711    1.1115 C   0  0  0  0  0  0  0  0  0  0  0  0
    4.1120    1.2147    2.1104 H   0  0  0  0  0  0  0  0  0  0  0  0
    4.6815    1.3342    0.4925 H   0  0  0  0  0  0  0  0  0  0  0  0
    4.0376   -0.6535    1.0106 C   0  0  0  0  0  0  0  0  0  0  0  0
    4.4621   -1.1049    1.8830 H   0  0  0  0  0  0  0  0  0  0  0  0
    4.6703   -0.9449    0.1983 H   0  0  0  0  0  0  0  0  0  0  0  0
    2.5635   -1.0894    0.7543 C   0  0  0  0  0  0  0  0  0  0  0  0
    2.0106   -1.2576    1.6548 H   0  0  0  0  0  0  0  0  0  0  0  0
    2.5236   -2.0146    0.2183 H   0  0  0  0  0  0  0  0  0  0  0  0
  1  2  1  0  0  0  0
  2  3  1  0  0  0  0
  2  4  1  0  0  0  0
  2 27  1  0  0  0  0
  4  5  1  0  0  0  0
  4 21  1  0  0  0  0
  5  6  2  0  0  0  0
  5  8  1  0  0  0  0
  6  7  1  0  0  0  0
  8  9  1  0  0  0  0
  8 18  1  0  0  0  0
  9 10  1  0  0  0  0
  9 11  1  0  0  0  0
  9 12  1  0  0  0  0
 12 13  1  0  0  0  0
 12 14  1  0  0  0  0
 12 15  1  0  0  0  0
 15 16  1  0  0  0  0
 15 17  1  0  0  0  0
 15 18  1  0  0  0  0
 18 19  1  0  0  0  0
 18 20  1  0  0  0  0
 21 22  1  0  0  0  0
 21 23  1  0  0  0  0
 21 24  1  0  0  0  0
 24 25  1  0  0  0  0
 24 26  1  0  0  0  0
 24 27  1  0  0  0  0
 27 28  1  0  0  0  0
 27 29  1  0  0  0  0
M  END
$$$$
