
 OpenBabel09252514183D

114121  0  0  0  0  0  0  0  0999 V2000
    1.0283    0.0154    0.0947 H   0  0  0  0  0  0  0  0  0  0  0  0
    2.0983    0.0154    0.0947 C   0  0  0  0  0  3  0  0  0  0  0  0
    2.6105   -1.3675   -0.3145 C   0  0  0  0  0  3  0  0  0  0  0  0
    2.2214   -2.1049    0.3562 H   0  0  0  0  0  0  0  0  0  0  0  0
    2.1803   -1.6597   -1.6457 C   0  0  0  0  0  3  0  0  0  0  0  0
    2.6637   -3.0543   -2.0084 C   0  0  0  0  0  0  0  0  0  0  0  0
    3.7317   -3.0874   -1.9525 H   0  0  0  0  0  0  0  0  0  0  0  0
    2.0740   -4.0636   -1.0369 C   0  0  0  0  0  0  0  0  0  0  0  0
    1.0060   -4.0306   -1.0928 H   0  0  0  0  0  0  0  0  0  0  0  0
    2.4143   -5.0454   -1.2922 H   0  0  0  0  0  0  0  0  0  0  0  0
    2.3866   -3.8254   -0.0417 H   0  0  0  0  0  0  0  0  0  0  0  0
    2.2196   -3.3927   -3.4222 C   0  0  0  0  0  0  0  0  0  0  0  0
    1.1516   -3.3597   -3.4781 H   0  0  0  0  0  0  0  0  0  0  0  0
    2.6347   -2.6822   -4.1061 H   0  0  0  0  0  0  0  0  0  0  0  0
    2.5599   -4.3745   -3.6775 H   0  0  0  0  0  0  0  0  0  0  0  0
    2.6677   -0.7457   -2.6297 C   0  0  0  0  0  3  0  0  0  0  0  0
    4.1377   -0.7491   -2.6164 N   0  0  0  0  0  0  0  0  0  0  0  0
    5.0860   -1.1033   -3.7451 C   0  0  0  0  0  0  0  0  0  0  0  0
    6.2731   -0.7157   -3.4891 C   0  0  0  0  0  0  0  0  0  0  0  0
    7.4506   -0.9283   -4.4266 C   0  0  0  0  0  3  0  0  0  0  0  0
    8.0426    0.4260   -4.8239 C   0  0  0  0  0  3  0  0  0  0  0  0
    7.2814    1.0309   -5.2706 H   0  0  0  0  0  0  0  0  0  0  0  0
    8.5516    1.0824   -3.6610 C   0  0  0  0  0  3  0  0  0  0  0  0
    8.9315    2.0388   -3.9541 H   0  0  0  0  0  0  0  0  0  0  0  0
    9.5969    0.3681   -2.9988 C   0  0  0  0  0  3  0  0  0  0  0  0
   10.4111    0.2176   -3.6765 H   0  0  0  0  0  0  0  0  0  0  0  0
    9.0677   -0.9885   -2.5276 C   0  0  0  0  0  3  0  0  0  0  0  0
   10.1934   -1.7751   -1.8759 C   0  0  0  0  0  3  0  0  0  0  0  0
   10.5706   -1.2292   -1.0366 H   0  0  0  0  0  0  0  0  0  0  0  0
    9.6659   -3.1219   -1.4087 C   0  0  0  0  0  3  0  0  0  0  0  0
    9.2886   -3.6679   -2.2481 H   0  0  0  0  0  0  0  0  0  0  0  0
   10.7915   -3.9085   -0.7571 C   0  0  0  0  0  3  0  0  0  0  0  0
   10.4202   -4.8566   -0.4282 H   0  0  0  0  0  0  0  0  0  0  0  0
    9.6651   -2.0398   -4.7084 C   0  0  0  0  0  3  0  0  0  0  0  0
    8.5312   -1.7652   -3.7341 C   0  0  0  0  0  3  0  0  0  0  0  0
    6.3782   -0.0400   -2.1868 N   0  0  0  0  0  0  0  0  0  0  0  0
    7.4851    0.7920   -1.6934 C   0  0  0  0  0  3  0  0  0  0  0  0
    6.6040    1.9803   -1.3011 C   0  0  0  0  0  3  0  0  0  0  0  0
    6.0188    2.6125   -2.5534 C   0  0  0  0  0  0  0  0  0  0  0  0
    5.4296    1.8885   -3.0764 H   0  0  0  0  0  0  0  0  0  0  0  0
    5.1433    3.7923   -2.1637 C   0  0  0  0  0  0  0  0  0  0  0  0
    5.7326    4.5163   -1.6406 H   0  0  0  0  0  0  0  0  0  0  0  0
    4.7314    4.2373   -3.0452 H   0  0  0  0  0  0  0  0  0  0  0  0
    4.3497    3.4539   -1.5308 H   0  0  0  0  0  0  0  0  0  0  0  0
    7.1461    3.0933   -3.4525 C   0  0  0  0  0  0  0  0  0  0  0  0
    7.7354    3.8172   -2.9295 H   0  0  0  0  0  0  0  0  0  0  0  0
    7.7624    2.2627   -3.7269 H   0  0  0  0  0  0  0  0  0  0  0  0
    6.7342    3.5383   -4.3340 H   0  0  0  0  0  0  0  0  0  0  0  0
    5.5441    1.5282   -0.4556 C   0  0  0  0  0  3  0  0  0  0  0  0
    4.9224    2.3662   -0.2188 H   0  0  0  0  0  0  0  0  0  0  0  0
    5.9860    0.9372    0.7678 C   0  0  0  0  0  3  0  0  0  0  0  0
    6.5674    1.6476    1.3176 H   0  0  0  0  0  0  0  0  0  0  0  0
    6.8422   -0.2933    0.4593 C   0  0  0  0  0  3  0  0  0  0  0  0
    7.2088   -0.7127    1.3728 H   0  0  0  0  0  0  0  0  0  0  0  0
    8.0226    0.1243   -0.4233 C   0  0  0  0  0  3  0  0  0  0  0  0
    8.9031    1.1048    0.3342 C   0  0  0  0  0  0  0  0  0  0  0  0
    8.3305    1.9702    0.5952 H   0  0  0  0  0  0  0  0  0  0  0  0
    9.4267    0.4434    1.5985 C   0  0  0  0  0  0  0  0  0  0  0  0
    9.9993   -0.4220    1.3375 H   0  0  0  0  0  0  0  0  0  0  0  0
   10.0465    1.1336    2.1317 H   0  0  0  0  0  0  0  0  0  0  0  0
    8.6029    0.1529    2.2165 H   0  0  0  0  0  0  0  0  0  0  0  0
   10.0733    1.5175   -0.5437 C   0  0  0  0  0  0  0  0  0  0  0  0
   10.6459    0.6521   -0.8048 H   0  0  0  0  0  0  0  0  0  0  0  0
    9.7047    1.9832   -1.4337 H   0  0  0  0  0  0  0  0  0  0  0  0
   10.6931    2.2078   -0.0105 H   0  0  0  0  0  0  0  0  0  0  0  0
    5.0777   -0.3958   -1.4585 Eu  0  0  0  0  0  0  0  0  0  0  0  0
    3.4833   -2.0436   -2.8651 N   0  0  0  0  0  0  0  0  0  0  0  0
    3.9385   -2.6314   -3.9506 C   0  0  0  0  0  0  0  0  0  0  0  0
    4.4991   -3.3552   -5.2871 S   0  0  0  0  0  0  0  0  0  0  0  0
    4.5464    0.7836   -0.6334 O   0  0  0  0  0  0  0  0  0  0  0  0
    4.8755    2.0253   -1.2386 C   0  0  0  0  0  0  0  0  0  0  0  0
    5.9391    2.1143   -1.3144 H   0  0  0  0  0  0  0  0  0  0  0  0
    4.4431    2.0713   -2.2163 H   0  0  0  0  0  0  0  0  0  0  0  0
    4.4923    2.8260   -0.6412 H   0  0  0  0  0  0  0  0  0  0  0  0
    5.2913    0.6001    0.7169 C   0  0  0  0  0  0  0  0  0  0  0  0
    4.7909    1.0791    1.5324 H   0  0  0  0  0  0  0  0  0  0  0  0
    6.2685    1.0340    0.6745 H   0  0  0  0  0  0  0  0  0  0  0  0
    5.3776   -0.9312    0.8887 C   0  0  0  0  0  0  0  0  0  0  0  0
    6.3012   -1.2135    1.3493 H   0  0  0  0  0  0  0  0  0  0  0  0
    4.5812   -1.2767    1.5142 H   0  0  0  0  0  0  0  0  0  0  0  0
    5.2538   -1.5380   -0.4972 O   0  0  0  0  0  0  0  0  0  0  0  0
    4.1282   -2.4019   -0.5536 C   0  0  0  0  0  0  0  0  0  0  0  0
    3.2460   -1.8559   -0.2919 H   0  0  0  0  0  0  0  0  0  0  0  0
    4.0261   -2.7905   -1.5453 H   0  0  0  0  0  0  0  0  0  0  0  0
    4.2643   -3.2104    0.1340 H   0  0  0  0  0  0  0  0  0  0  0  0
    4.9820    1.1080    0.7093 O   0  0  0  0  0  0  0  0  0  0  0  0
    3.9302    0.6587    1.5509 C   0  0  0  0  0  0  0  0  0  0  0  0
    4.1069   -0.3589    1.8303 H   0  0  0  0  0  0  0  0  0  0  0  0
    3.8914    1.2682    2.4295 H   0  0  0  0  0  0  0  0  0  0  0  0
    2.9998    0.7283    1.0271 H   0  0  0  0  0  0  0  0  0  0  0  0
    6.2168    1.0155    1.4044 C   0  0  0  0  0  0  0  0  0  0  0  0
    6.3935   -0.0021    1.6838 H   0  0  0  0  0  0  0  0  0  0  0  0
    7.0093    1.3541    0.7702 H   0  0  0  0  0  0  0  0  0  0  0  0
    6.1616    1.8814    2.6525 C   0  0  0  0  0  0  0  0  0  0  0  0
    5.3691    1.5428    3.2867 H   0  0  0  0  0  0  0  0  0  0  0  0
    7.0921    1.8117    3.1762 H   0  0  0  0  0  0  0  0  0  0  0  0
    3.9089   -0.8575    0.8632 O   0  0  0  0  0  0  0  0  0  0  0  0
    4.5499   -0.0956    1.8757 C   0  0  0  0  0  0  0  0  0  0  0  0
    5.5810   -0.3753    1.9336 H   0  0  0  0  0  0  0  0  0  0  0  0
    4.4754    0.9454    1.6396 H   0  0  0  0  0  0  0  0  0  0  0  0
    4.0762   -0.2827    2.8167 H   0  0  0  0  0  0  0  0  0  0  0  0
    2.1578    0.6625   -2.3142 C   0  0  0  0  0  3  0  0  0  0  0  0
    2.7236    1.6467   -3.3249 C   0  0  0  0  0  0  0  0  0  0  0  0
    3.7923    1.6355   -3.2740 H   0  0  0  0  0  0  0  0  0  0  0  0
    2.2788    1.2493   -4.7230 C   0  0  0  0  0  0  0  0  0  0  0  0
    1.2100    1.2606   -4.7739 H   0  0  0  0  0  0  0  0  0  0  0  0
    2.6771    1.9422   -5.4345 H   0  0  0  0  0  0  0  0  0  0  0  0
    2.6361    0.2654   -4.9447 H   0  0  0  0  0  0  0  0  0  0  0  0
    2.2160    3.0444   -3.0099 C   0  0  0  0  0  0  0  0  0  0  0  0
    1.1473    3.0557   -3.0608 H   0  0  0  0  0  0  0  0  0  0  0  0
    2.5292    3.3242   -2.0258 H   0  0  0  0  0  0  0  0  0  0  0  0
    2.6143    3.7373   -3.7214 H   0  0  0  0  0  0  0  0  0  0  0  0
    2.6111    1.0571   -0.9052 C   0  0  0  0  0  3  0  0  0  0  0  0
    3.6799    1.0929   -0.8692 H   0  0  0  0  0  0  0  0  0  0  0  0
  1  2  1  0  0  0  0
  2  3  1  0  0  0  0
  2113  1  0  0  0  0
  3  4  1  0  0  0  0
  3  5  1  0  0  0  0
  5  6  1  0  0  0  0
  5 16  1  0  0  0  0
  6  7  1  0  0  0  0
  6  8  1  0  0  0  0
  6 12  1  0  0  0  0
  8  9  1  0  0  0  0
  8 10  1  0  0  0  0
  8 11  1  0  0  0  0
 12 13  1  0  0  0  0
 12 14  1  0  0  0  0
 12 15  1  0  0  0  0
 16 17  1  0  0  0  0
 16102  1  0  0  0  0
 17 18  1  0  0  0  0
 17 66  1  0  0  0  0
 18 19  2  0  0  0  0
 18 34  1  0  0  0  0
 19 20  1  0  0  0  0
 19 36  1  0  0  0  0
 20 21  1  0  0  0  0
 20 35  1  0  0  0  0
 21 22  1  0  0  0  0
 21 23  1  0  0  0  0
 23 24  1  0  0  0  0
 23 25  1  0  0  0  0
 25 26  1  0  0  0  0
 25 27  1  0  0  0  0
 27 28  1  0  0  0  0
 27 35  1  0  0  0  0
 28 29  1  0  0  0  0
 28 30  1  0  0  0  0
 30 31  1  0  0  0  0
 30 32  1  0  0  0  0
 32 33  1  0  0  0  0
 32 34  1  0  0  0  0
 34 35  1  0  0  0  0
 36 37  1  0  0  0  0
 36 66  1  0  0  0  0
 37 38  1  0  0  0  0
 37 55  1  0  0  0  0
 38 39  1  0  0  0  0
 38 49  1  0  0  0  0
 39 40  1  0  0  0  0
 39 41  1  0  0  0  0
 39 45  1  0  0  0  0
 41 42  1  0  0  0  0
 41 43  1  0  0  0  0
 41 44  1  0  0  0  0
 45 46  1  0  0  0  0
 45 47  1  0  0  0  0
 45 48  1  0  0  0  0
 49 50  1  0  0  0  0
 49 51  1  0  0  0  0
 51 52  1  0  0  0  0
 51 53  1  0  0  0  0
 53 54  1  0  0  0  0
 53 55  1  0  0  0  0
 55 56  1  0  0  0  0
 56 57  1  0  0  0  0
 56 58  1  0  0  0  0
 56 62  1  0  0  0  0
 58 59  1  0  0  0  0
 58 60  1  0  0  0  0
 58 61  1  0  0  0  0
 62 63  1  0  0  0  0
 62 64  1  0  0  0  0
 62 65  1  0  0  0  0
 66 67  1  0  0  0  0
 66 70  1  0  0  0  0
 66 81  1  0  0  0  0
 66 86  1  0  0  0  0
 66 97  1  0  0  0  0
 67 68  2  0  0  0  0
 68 69  2  0  0  0  0
 70 71  1  0  0  0  0
 70 75  1  0  0  0  0
 71 72  1  0  0  0  0
 71 73  1  0  0  0  0
 71 74  1  0  0  0  0
 75 76  1  0  0  0  0
 75 77  1  0  0  0  0
 75 78  1  0  0  0  0
 78 79  1  0  0  0  0
 78 80  1  0  0  0  0
 78 81  1  0  0  0  0
 81 82  1  0  0  0  0
 82 83  1  0  0  0  0
 82 84  1  0  0  0  0
 82 85  1  0  0  0  0
 86 87  1  0  0  0  0
 86 91  1  0  0  0  0
 87 88  1  0  0  0  0
 87 89  1  0  0  0  0
 87 90  1  0  0  0  0
 91 92  1  0  0  0  0
 91 93  1  0  0  0  0
 91 94  1  0  0  0  0
 94 95  1  0  0  0  0
 94 96  1  0  0  0  0
 94 97  1  0  0  0  0
 97 98  1  0  0  0  0
 98 99  1  0  0  0  0
 98100  1  0  0  0  0
 98101  1  0  0  0  0
102103  1  0  0  0  0
102113  1  0  0  0  0
103104  1  0  0  0  0
103105  1  0  0  0  0
103109  1  0  0  0  0
105106  1  0  0  0  0
105107  1  0  0  0  0
105108  1  0  0  0  0
109110  1  0  0  0  0
109111  1  0  0  0  0
109112  1  0  0  0  0
113114  1  0  0  0  0
M  END
$$$$
