
 OpenBabel09252515593D

 48 56  0  0  1  0  0  0  0  0999 V2000
    0.9380    0.0663    0.0419 H   0  0  0  0  0  0  0  0  0  0  0  0
    2.0080    0.0663    0.0419 C   0  0  0  0  0  3  0  0  0  0  0  0
    2.5146    0.3791    1.4404 C   0  0  0  0  0  3  0  0  0  0  0  0
    3.5846    0.3791    1.4404 H   0  0  0  0  0  0  0  0  0  0  0  0
    2.0080    1.7467    1.8688 C   0  0  0  0  0  3  0  0  0  0  0  0
    2.7750    2.7827    1.0736 C   0  0  0  0  0  3  0  0  0  0  0  0
    2.1343    2.8532   -0.3199 C   0  0  0  0  0  3  0  0  0  0  0  0
    2.1723    1.4796   -0.9696 C   0  0  0  0  0  3  0  0  0  0  0  0
    1.6301    0.7836   -0.3642 H   0  0  0  0  0  0  0  0  0  0  0  0
    1.5373    1.5537   -2.3486 C   0  0  0  0  0  3  0  0  0  0  0  0
    2.0795    2.2497   -2.9541 H   0  0  0  0  0  0  0  0  0  0  0  0
    1.5752    0.1800   -2.9983 C   0  0  0  0  0  3  0  0  0  0  0  0
    2.0176    0.0188   -3.9592 H   0  0  0  0  0  0  0  0  0  0  0  0
    4.2339    2.3727    0.9555 C   0  0  0  0  0  3  0  0  0  0  0  0
    2.5146    1.1210   -0.9282 C   0  0  0  0  0  3  0  0  0  0  0  0
    3.0405    0.7042   -1.7617 H   0  0  0  0  0  0  0  0  0  0  0  0
    0.6811    3.3128   -0.1728 Ir  0  0  0  0  0  0  0  0  0  0  0  0
    2.0562    2.2038   -1.8413 Cl  0  0  0  0  0  0  0  0  0  0  0  0
   -0.0609    2.4445    0.8005 C   0  0  0  0  0  0  0  0  0  0  0  0
   -0.4742    1.6357    1.3662 H   0  0  0  0  0  0  0  0  0  0  0  0
    0.0396    2.5343   -0.2609 H   0  0  0  0  0  0  0  0  0  0  0  0
    0.5387    1.7325    1.7392 C   0  0  1  0  0  0  0  0  0  0  0  0
   -0.0798    2.5056    2.1449 H   0  0  0  0  0  0  0  0  0  0  0  0
    0.4687    5.6760   -1.9686 C   0  0  2  0  0  0  0  0  0  0  0  0
   -0.0072    6.8560   -2.8003 C   0  0  0  0  0  0  0  0  0  0  0  0
   -0.6431    7.4782   -2.2060 H   0  0  0  0  0  0  0  0  0  0  0  0
    0.8379    7.4227   -3.1315 H   0  0  0  0  0  0  0  0  0  0  0  0
   -0.5511    6.4975   -3.6492 H   0  0  0  0  0  0  0  0  0  0  0  0
    1.1687    5.8249   -0.6144 C   0  0  2  0  0  0  0  0  0  0  0  0
    1.9031    7.1537   -0.5395 C   0  0  0  0  0  0  0  0  0  0  0  0
    2.9327    7.0062   -0.7907 H   0  0  0  0  0  0  0  0  0  0  0  0
    1.4631    7.8438   -1.2288 H   0  0  0  0  0  0  0  0  0  0  0  0
    1.8308    7.5462    0.4533 H   0  0  0  0  0  0  0  0  0  0  0  0
    0.6579    4.7459    0.3136 C   0  0  2  0  0  0  0  0  0  0  0  0
    0.5902    5.4209    1.6739 C   0  0  0  0  0  0  0  0  0  0  0  0
    1.2594    6.2556    1.6913 H   0  0  0  0  0  0  0  0  0  0  0  0
   -0.4084    5.7605    1.8541 H   0  0  0  0  0  0  0  0  0  0  0  0
    0.8718    4.7220    2.4337 H   0  0  0  0  0  0  0  0  0  0  0  0
   -0.0072    3.2554   -1.5414 C   0  0  2  0  0  0  0  0  0  0  0  0
   -0.8809    2.2810   -2.3144 C   0  0  0  0  0  0  0  0  0  0  0  0
   -1.2029    2.7373   -3.2271 H   0  0  0  0  0  0  0  0  0  0  0  0
   -0.3199    1.3972   -2.5360 H   0  0  0  0  0  0  0  0  0  0  0  0
   -1.7351    2.0226   -1.7241 H   0  0  0  0  0  0  0  0  0  0  0  0
    0.6651    4.2505   -2.4880 C   0  0  2  0  0  0  0  0  0  0  0  0
    1.0985    4.3232   -3.9431 C   0  0  0  0  0  0  0  0  0  0  0  0
    1.5575    3.3988   -4.2255 H   0  0  0  0  0  0  0  0  0  0  0  0
    0.2435    4.5004   -4.5615 H   0  0  0  0  0  0  0  0  0  0  0  0
    1.7997    5.1219   -4.0667 H   0  0  0  0  0  0  0  0  0  0  0  0
  1  2  1  0  0  0  0
  2  3  1  0  0  0  0
  2 15  1  0  0  0  0
  3  5  1  0  0  0  0
  3  4  1  0  0  0  0
  5  6  1  0  0  0  0
  5 22  1  0  0  0  0
  6  7  1  0  0  0  0
  6 14  1  0  0  0  0
  7  8  1  0  0  0  0
  7 17  1  0  0  0  0
  8 10  1  0  0  0  0
  8  9  1  0  0  0  0
 10 12  1  0  0  0  0
 10 11  1  0  0  0  0
 12 14  1  0  0  0  0
 12 13  1  0  0  0  0
 14 15  1  0  0  0  0
 15 16  1  0  0  0  0
 17 19  1  0  0  0  0
 17 22  1  0  0  0  0
 17 24  1  0  0  0  0
 17 29  1  0  0  0  0
 17 34  1  0  0  0  0
 17 39  1  0  0  0  0
 17 44  1  0  0  0  0
 17 18  1  0  0  0  0
 19 22  2  0  0  0  0
 19 20  1  0  0  0  0
 19 21  1  0  0  0  0
 22 23  1  1  0  0  0
 24 29  1  0  0  0  0
 24 44  1  0  0  0  0
 24 25  1  1  0  0  0
 25 26  1  0  0  0  0
 25 27  1  0  0  0  0
 25 28  1  0  0  0  0
 29 34  1  0  0  0  0
 29 30  1  1  0  0  0
 30 31  1  0  0  0  0
 30 32  1  0  0  0  0
 30 33  1  0  0  0  0
 34 39  1  0  0  0  0
 34 35  1  1  0  0  0
 35 36  1  0  0  0  0
 35 37  1  0  0  0  0
 35 38  1  0  0  0  0
 39 44  1  0  0  0  0
 39 40  1  6  0  0  0
 40 41  1  0  0  0  0
 40 42  1  0  0  0  0
 40 43  1  0  0  0  0
 44 45  1  6  0  0  0
 45 46  1  0  0  0  0
 45 47  1  0  0  0  0
 45 48  1  0  0  0  0
M  END
$$$$
