
  --CCDC--092525    3D                              

 44 49  0  0  0  0  0  0  0  0999 V2000
    0.3955    0.3016   -0.2713 C      0
    1.6002    1.1363    0.0960 C      0
    2.7245    0.4049   -0.4470 C      0
    2.8050    0.3295    1.5615 Ir     0
    2.1153    1.7077    2.8579 C      0
    1.5067    1.8981    1.5600 C      0
    4.1016   -1.3392    1.4158 C      0
    3.8784   -2.6342    1.8954 C      0
    3.1015   -2.7475    3.1792 C      0
    1.8503   -1.4947    2.9121 P      0
    0.4640   -2.3086    2.0816 C      0
    0.8477   -2.8313    0.9226 F      0
   -0.5353   -1.4585    1.8779 F      0
    0.0067   -3.2977    2.8407 F      0
    1.2741   -0.8983    4.5201 C      0
    0.8311   -1.9123    5.2546 F      0
    0.2812   -0.0292    4.3700 F      0
    2.2634   -0.3041    5.1773 F      0
    4.4770   -3.7537    1.3255 C      0
    5.5091   -3.5948    0.4204 C      0
    5.9905   -2.3174    0.2044 C      0
    5.3359   -1.2247    0.7654 C      0
    5.9766    0.1433    0.8134 C      0
    5.1086    0.8263    2.2386 P      0
    5.6460    0.1047    3.8121 C      0
    4.8525    0.5079    4.7977 F      0
    6.8801    0.5108    4.0874 F      0
    5.6621   -1.2219    3.7967 F      0
    5.3794    2.6139    2.2950 C      0
    4.6664    3.1616    3.2724 F      0
    5.0195    3.1736    1.1457 F      0
    6.6624    2.8810    2.5100 F      0
    0.0801    0.5124   -1.2910 H      0
   -0.4404    0.5122    0.3925 H      0
    0.6277   -0.7566   -0.2070 H      0
    2.9239   -0.2638   -1.2685 H      0
    2.1675    2.0737    3.8780 H      0
    2.6715   -3.7427    3.3466 H      0
    3.7330   -2.5068    4.0422 H      0
    4.1631   -4.7490    1.6222 H      0
    5.9651   -4.4526   -0.0627 H      0
    6.8869   -2.1680   -0.3884 H      0
    7.0634    0.1080    0.9585 H      0
    5.7714    0.7125   -0.1017 H      0
  1  2  1
  2  3  2
  3  4  1
  2  4  1
  4  5  1
  5  6  2
  2  6  1
  4  6  1
  4  7  1
  7  8  4
  8  9  1
  9 10  1
  4 10  1
 10 11  1
 11 12  1
 11 13  1
 11 14  1
 10 15  1
 15 16  1
 15 17  1
 15 18  1
  8 19  4
 19 20  4
 20 21  4
 21 22  4
  7 22  4
 22 23  1
 23 24  1
  4 24  1
 24 25  1
 25 26  1
 25 27  1
 25 28  1
 24 29  1
 29 30  1
 29 31  1
 29 32  1
  1 33  1
  1 34  1
  1 35  1
  3 36  1
  5 37  1
  9 38  1
  9 39  1
 19 40  1
 20 41  1
 21 42  1
 23 43  1
 23 44  1
M  END
$$$$
