
 OpenBabel09252514463D

 23 24  0  0  1  0  0  0  0  0999 V2000
    9.9361   -1.1128   -7.5505 H   0  0  0  0  0  0  0  0  0  0  0  0
    9.3397   -0.5116   -6.8739 C   0  0  0  0  0  3  0  0  0  0  0  0
    9.8601   -0.1814   -5.5567 C   0  0  0  0  0  3  0  0  0  0  0  0
   10.8494   -0.5305   -5.2811 H   0  0  0  0  0  0  0  0  0  0  0  0
    8.9526    0.2694   -4.5064 C   0  0  0  0  0  3  0  0  0  0  0  0
    9.3199    0.2760   -3.4843 H   0  0  0  0  0  0  0  0  0  0  0  0
    7.4937    0.2981   -4.7451 C   0  0  0  0  0  3  0  0  0  0  0  0
    6.4727   -0.3153   -3.4327 S   0  0  0  0  0  0  0  0  0  0  0  0
    6.2938   -1.7438   -3.6464 O   0  0  0  0  0  0  0  0  0  0  0  0
    7.0646    0.1299   -2.1782 O   0  0  0  0  0  0  0  0  0  0  0  0
    4.8545    0.4557   -3.5230 C   0  0  2  0  0  0  0  0  0  0  0  0
    4.1608    0.0021   -2.8056 H   0  0  0  0  0  0  0  0  0  0  0  0
    4.3248    0.3896   -4.8963 N   0  0  0  0  0  0  0  0  0  0  0  0
    3.7231   -0.3122   -5.3089 H   0  0  0  0  0  0  0  0  0  0  0  0
    3.9113    1.6860   -4.8744 C   0  0  0  0  0  0  0  0  0  0  0  0
    3.1195    2.2614   -5.5767 O   0  0  0  0  0  0  0  0  0  0  0  0
    4.7698    1.9810   -3.6277 C   0  0  0  0  0  0  0  0  0  0  0  0
    4.2244    2.4641   -2.8132 H   0  0  0  0  0  0  0  0  0  0  0  0
    5.6923    2.5242   -3.8424 H   0  0  0  0  0  0  0  0  0  0  0  0
    7.0486    0.2326   -6.1443 C   0  0  0  0  0  3  0  0  0  0  0  0
    6.1981    0.8149   -6.4748 H   0  0  0  0  0  0  0  0  0  0  0  0
    7.9399   -0.2764   -7.1760 C   0  0  0  0  0  3  0  0  0  0  0  0
    7.5478   -0.5151   -8.1574 H   0  0  0  0  0  0  0  0  0  0  0  0
  1  2  1  0  0  0  0
  2  3  1  0  0  0  0
  2 22  1  0  0  0  0
  3  4  1  0  0  0  0
  3  5  1  0  0  0  0
  5  6  1  0  0  0  0
  5  7  1  0  0  0  0
  7  8  1  0  0  0  0
  7 20  1  0  0  0  0
  8  9  2  0  0  0  0
  8 10  2  0  0  0  0
 11 13  1  0  0  0  0
 11 17  1  0  0  0  0
 11 12  1  1  0  0  0
 11  8  1  0  0  0  0
 13 14  1  0  0  0  0
 13 15  1  0  0  0  0
 15 16  2  0  0  0  0
 15 17  1  0  0  0  0
 17 18  1  0  0  0  0
 17 19  1  0  0  0  0
 20 21  1  0  0  0  0
 20 22  1  0  0  0  0
 22 23  1  0  0  0  0
M  END
$$$$
