
 OpenBabel09252518443D

 55 59  0  0  0  0  0  0  0  0999 V2000
    0.9247    0.0658    0.0019 H   0  0  0  0  0  0  0  0  0  0  0  0
    1.9947    0.0658    0.0019 C   0  0  0  0  0  3  0  0  0  0  0  0
    2.5069   -1.3172   -0.4072 C   0  0  0  0  0  3  0  0  0  0  0  0
    2.1178   -2.0546    0.2634 H   0  0  0  0  0  0  0  0  0  0  0  0
    2.0767   -1.6093   -1.7384 C   0  0  0  0  0  3  0  0  0  0  0  0
    2.4170   -2.5911   -1.9938 H   0  0  0  0  0  0  0  0  0  0  0  0
    2.5641   -0.6953   -2.7225 C   0  0  0  0  0  3  0  0  0  0  0  0
    4.3940   -0.6996   -2.7059 P   0  0  0  0  0  0  0  0  0  0  0  0
    5.3013   -2.2158   -2.2295 C   0  0  0  0  0  3  0  0  0  0  0  0
    6.5033   -2.3863   -1.2976 C   0  0  0  0  0  3  0  0  0  0  0  0
    7.4076   -2.2529   -1.8538 H   0  0  0  0  0  0  0  0  0  0  0  0
    6.4379   -1.4125   -0.2536 C   0  0  0  0  0  3  0  0  0  0  0  0
    7.3015   -1.5272    0.3676 H   0  0  0  0  0  0  0  0  0  0  0  0
    5.2753   -1.5182    0.5703 C   0  0  0  0  0  3  0  0  0  0  0  0
    5.2441   -2.4883    1.0206 H   0  0  0  0  0  0  0  0  0  0  0  0
    4.0236   -1.3125   -0.2861 C   0  0  0  0  0  3  0  0  0  0  0  0
    3.1507   -1.4332    0.3209 H   0  0  0  0  0  0  0  0  0  0  0  0
    4.0108   -2.3488   -1.4142 C   0  0  0  0  0  3  0  0  0  0  0  0
    3.9499   -3.3323   -0.9971 H   0  0  0  0  0  0  0  0  0  0  0  0
    4.3837   -0.3016   -1.4191 S   0  0  0  0  0  0  0  0  0  0  0  0
    3.2797   -0.5053   -0.6406 Cu  0  0  0  0  0  0  0  0  0  0  0  0
    2.9732    0.8865    1.6644 I   0  0  0  0  0  0  0  0  0  0  0  0
    2.3145   -1.4246   -1.0292 S   0  0  0  0  0  0  0  0  0  0  0  0
    2.2476   -1.8501   -2.2708 P   0  0  0  0  0  0  0  0  0  0  0  0
    2.9241   -0.6192   -1.0977 C   0  0  0  0  0  3  0  0  0  0  0  0
    4.4113   -0.9804   -1.1024 C   0  0  0  0  0  3  0  0  0  0  0  0
    4.5332   -1.9947   -0.7843 H   0  0  0  0  0  0  0  0  0  0  0  0
    4.9334   -0.8296   -2.4242 C   0  0  0  0  0  3  0  0  0  0  0  0
    5.9641   -1.1166   -2.4133 H   0  0  0  0  0  0  0  0  0  0  0  0
    4.8434    0.5005   -2.9384 C   0  0  0  0  0  3  0  0  0  0  0  0
    5.3759    1.1687   -2.2943 H   0  0  0  0  0  0  0  0  0  0  0  0
    3.3736    0.9215   -3.0079 C   0  0  0  0  0  3  0  0  0  0  0  0
    3.3066    1.9322   -3.3528 H   0  0  0  0  0  0  0  0  0  0  0  0
    2.7536    0.8143   -1.6112 C   0  0  0  0  0  3  0  0  0  0  0  0
    3.2457    1.4939   -0.9472 H   0  0  0  0  0  0  0  0  0  0  0  0
    0.8358   -1.4079   -3.3480 C   0  0  0  0  0  3  0  0  0  0  0  0
    0.8645    0.0945   -3.6379 C   0  0  0  0  0  3  0  0  0  0  0  0
    0.8758    0.6358   -2.7149 H   0  0  0  0  0  0  0  0  0  0  0  0
    2.0372    0.4116   -4.3907 C   0  0  0  0  0  3  0  0  0  0  0  0
    2.0551    1.4687   -4.5555 H   0  0  0  0  0  0  0  0  0  0  0  0
    2.1099   -0.2416   -5.6593 C   0  0  0  0  0  3  0  0  0  0  0  0
    1.2570    0.0256   -6.2476 H   0  0  0  0  0  0  0  0  0  0  0  0
    2.1316   -1.7577   -5.4512 C   0  0  0  0  0  3  0  0  0  0  0  0
    2.1434   -2.2495   -6.4015 H   0  0  0  0  0  0  0  0  0  0  0  0
    0.8802   -2.1761   -4.6730 C   0  0  0  0  0  3  0  0  0  0  0  0
    0.0073   -1.9489   -5.2486 H   0  0  0  0  0  0  0  0  0  0  0  0
    3.2025   -1.3699   -3.3252 C   0  0  0  0  0  0  0  0  0  0  0  0
    2.6964   -0.6605   -3.9462 H   0  0  0  0  0  0  0  0  0  0  0  0
    3.5334   -2.2063   -3.9048 H   0  0  0  0  0  0  0  0  0  0  0  0
    2.0542    0.7128   -2.4070 C   0  0  0  0  0  3  0  0  0  0  0  0
    2.4525    1.4057   -3.1185 H   0  0  0  0  0  0  0  0  0  0  0  0
    2.5075    1.1074   -0.9979 C   0  0  0  0  0  3  0  0  0  0  0  0
    3.5763    1.1432   -0.9619 H   0  0  0  0  0  0  0  0  0  0  0  0
    5.4166   -0.9390   -0.8054 H   0  0  0  0  0  0  0  0  0  0  0  0
    1.1087   -0.8623   -0.7473 H   0  0  0  0  0  0  0  0  0  0  0  0
  1  2  1  0  0  0  0
  2  3  1  0  0  0  0
  2 52  1  0  0  0  0
  3  4  1  0  0  0  0
  3  5  1  0  0  0  0
  5  6  1  0  0  0  0
  5  7  1  0  0  0  0
  7  8  1  0  0  0  0
  7 50  1  0  0  0  0
  8  9  1  0  0  0  0
  8 20  2  0  0  0  0
  8 47  1  0  0  0  0
  9 10  1  0  0  0  0
  9 18  1  0  0  0  0
 10 11  1  0  0  0  0
 10 12  1  0  0  0  0
 12 13  1  0  0  0  0
 12 14  1  0  0  0  0
 14 15  1  0  0  0  0
 14 16  1  0  0  0  0
 16 17  1  0  0  0  0
 16 18  1  0  0  0  0
 18 19  1  0  0  0  0
 20 21  1  0  0  0  0
 20 54  1  0  0  0  0
 21 22  1  0  0  0  0
 21 23  1  0  0  0  0
 23 24  2  0  0  0  0
 23 55  1  0  0  0  0
 24 25  1  0  0  0  0
 24 36  1  0  0  0  0
 24 47  1  0  0  0  0
 25 26  1  0  0  0  0
 25 34  1  0  0  0  0
 26 27  1  0  0  0  0
 26 28  1  0  0  0  0
 28 29  1  0  0  0  0
 28 30  1  0  0  0  0
 30 31  1  0  0  0  0
 30 32  1  0  0  0  0
 32 33  1  0  0  0  0
 32 34  1  0  0  0  0
 34 35  1  0  0  0  0
 36 37  1  0  0  0  0
 36 45  1  0  0  0  0
 37 38  1  0  0  0  0
 37 39  1  0  0  0  0
 39 40  1  0  0  0  0
 39 41  1  0  0  0  0
 41 42  1  0  0  0  0
 41 43  1  0  0  0  0
 43 44  1  0  0  0  0
 43 45  1  0  0  0  0
 45 46  1  0  0  0  0
 47 48  1  0  0  0  0
 47 49  1  0  0  0  0
 50 51  1  0  0  0  0
 50 52  1  0  0  0  0
 52 53  1  0  0  0  0
M  END
$$$$
