
     RDKit          3D

  0  0  0  0  0  0  0  0  0  0999 V3000
M  V30 BEGIN CTAB
M  V30 COUNTS 47 52 0 0 0
M  V30 BEGIN ATOM
M  V30 1 C 1.668427 -2.373754 -0.008629 0
M  V30 2 C 1.952365 -1.099670 0.677163 0
M  V30 3 N 1.874636 0.015606 1.280230 0
M  V30 4 C 2.279697 1.210148 1.945107 0
M  V30 5 C 1.181958 2.078446 2.379237 0
M  V30 6 C 0.406962 2.693398 1.207111 0
M  V30 7 N -0.501913 1.800846 0.661237 0
M  V30 8 C -1.540387 1.260188 0.213745 0
M  V30 9 C -2.231119 0.107551 -0.367066 0
M  V30 10 C -1.517542 -0.835677 -1.086429 0
M  V30 11 O -0.185581 -0.531640 -1.186020 0
M  V30 12 Cu 0.577999 0.317763 0.121581 0 VAL=4
M  V30 13 O 1.964042 1.431827 -1.180913 0
M  V30 14 C 3.108921 0.553709 -1.012788 0
M  V30 15 C 4.175967 1.009197 -1.801269 0
M  V30 16 C 5.312798 0.245895 -1.744928 0
M  V30 17 C 5.525140 -0.896844 -1.016952 0
M  V30 18 C 4.464547 -1.308290 -0.259785 0
M  V30 19 C 3.199271 -0.674018 -0.162303 0
M  V30 20 C -2.074024 -1.991793 -1.663693 0
M  V30 21 C -3.420259 -2.069463 -1.423491 0
M  V30 22 C -4.174494 -1.168387 -0.720188 0
M  V30 23 C -5.524948 -1.349697 -0.533555 0
M  V30 24 C -6.324091 -0.475277 0.171547 0
M  V30 25 C -5.729358 0.642457 0.718289 0
M  V30 26 C -4.376935 0.820487 0.529072 0
M  V30 27 C -3.588762 -0.056908 -0.176222 0
M  V30 28 H 1.076977 -2.384866 -0.897279 0
M  V30 29 H 2.522350 -3.045405 -0.079879 0
M  V30 30 H 1.023574 -2.940256 0.794978 0
M  V30 31 H 2.897212 0.977486 2.843395 0
M  V30 32 H 2.968481 1.839739 1.311577 0
M  V30 33 H 0.444057 1.481824 2.971791 0
M  V30 34 H 1.574672 2.856530 3.001846 0
M  V30 35 H 1.197971 2.937965 0.448661 0
M  V30 36 H 0.078230 3.667702 1.571196 0
M  V30 37 H -2.270981 2.033009 0.225985 0
M  V30 38 H 4.047481 1.884332 -2.374015 0
M  V30 39 H 6.160461 0.559967 -2.336469 0
M  V30 40 H 6.374000 -1.532901 -0.929937 0
M  V30 41 H 4.453628 -2.233791 0.346648 0
M  V30 42 H -1.472391 -2.672682 -2.202143 0
M  V30 43 H -3.922721 -2.926990 -1.831106 0
M  V30 44 H -5.951019 -2.238034 -0.977967 0
M  V30 45 H -7.383817 -0.656005 0.294512 0
M  V30 46 H -6.349767 1.338975 1.276696 0
M  V30 47 H -3.971712 1.697301 0.981424 0
M  V30 END ATOM
M  V30 BEGIN BOND
M  V30 1 1 1 2
M  V30 2 2 2 3
M  V30 3 1 3 4
M  V30 4 1 4 5
M  V30 5 1 5 6
M  V30 6 1 6 7
M  V30 7 2 7 8
M  V30 8 1 8 9
M  V30 9 2 9 10
M  V30 10 1 10 11
M  V30 11 1 11 12
M  V30 12 1 12 13
M  V30 13 1 13 14
M  V30 14 2 14 15
M  V30 15 1 15 16
M  V30 16 2 16 17
M  V30 17 1 17 18
M  V30 18 2 18 19
M  V30 19 1 10 20
M  V30 20 2 20 21
M  V30 21 1 21 22
M  V30 22 2 22 23
M  V30 23 1 23 24
M  V30 24 2 24 25
M  V30 25 1 25 26
M  V30 26 2 26 27
M  V30 27 1 19 2
M  V30 28 1 27 22
M  V30 29 9 3 12
M  V30 30 1 19 14
M  V30 31 9 7 12
M  V30 32 1 27 9
M  V30 33 1 1 28
M  V30 34 1 1 29
M  V30 35 1 1 30
M  V30 36 1 4 31
M  V30 37 1 4 32
M  V30 38 1 5 33
M  V30 39 1 5 34
M  V30 40 1 6 35
M  V30 41 1 6 36
M  V30 42 1 8 37
M  V30 43 1 15 38
M  V30 44 1 16 39
M  V30 45 1 17 40
M  V30 46 1 18 41
M  V30 47 1 20 42
M  V30 48 1 21 43
M  V30 49 1 23 44
M  V30 50 1 24 45
M  V30 51 1 25 46
M  V30 52 1 26 47
M  V30 END BOND
M  V30 END CTAB
M  END
