
 OpenBabel09252515443D

 87103  0  0  1  0  0  0  0  0999 V2000
    0.9217   -0.0619   -0.0064 H   0  0  0  0  0  0  0  0  0  0  0  0
    1.9917   -0.0619   -0.0064 C   0  0  0  0  0  3  0  0  0  0  0  0
    2.5040   -1.4448   -0.4155 C   0  0  0  0  0  3  0  0  0  0  0  0
    2.1148   -2.1822    0.2551 H   0  0  0  0  0  0  0  0  0  0  0  0
    2.0737   -1.7370   -1.7468 C   0  0  0  0  0  3  0  0  0  0  0  0
    2.4140   -2.7187   -2.0021 H   0  0  0  0  0  0  0  0  0  0  0  0
    2.5612   -0.8230   -2.7308 C   0  0  0  0  0  3  0  0  0  0  0  0
    4.3911   -0.8272   -2.7142 P   0  3  0  0  0  0  0  0  0  0  0  0
    5.0006   -2.5111   -3.0908 C   0  0  0  0  0  3  0  0  0  0  0  0
    3.9179   -2.8015   -2.0488 C   0  0  0  0  0  3  0  0  0  0  0  0
    3.8878   -2.0056   -1.3343 H   0  0  0  0  0  0  0  0  0  0  0  0
    2.6490   -2.9074   -2.6979 C   0  0  0  0  0  3  0  0  0  0  0  0
    1.9025   -3.0784   -1.9507 H   0  0  0  0  0  0  0  0  0  0  0  0
    2.5719   -3.9618   -3.6589 C   0  0  0  0  0  3  0  0  0  0  0  0
    2.7775   -4.8965   -3.1803 H   0  0  0  0  0  0  0  0  0  0  0  0
    3.6003   -3.7184   -4.7661 C   0  0  0  0  0  3  0  0  0  0  0  0
    3.5733   -4.5287   -5.4644 H   0  0  0  0  0  0  0  0  0  0  0  0
    4.9966   -3.6248   -4.1431 C   0  0  0  0  0  3  0  0  0  0  0  0
    5.2459   -4.5566   -3.6800 H   0  0  0  0  0  0  0  0  0  0  0  0
    5.2540    0.7914   -4.4568 Ru  0  0  0  0  0  0  0  0  0  0  0  0
    4.1845    0.8211   -3.0468 H   0  0  0  0  0  0  0  0  0  0  0  0
    1.5140    3.8916   -3.4554 Ru  0  0  0  0  0  0  0  0  0  0  0  0
    3.3840    2.3415   -3.9561 Cl  0  0  0  0  0  2  0  0  0  0  0  0
   -0.6600    2.7785   -3.9647 C   0  0  2  0  0  0  0  0  0  0  0  0
   -1.6376    1.6236   -4.1093 C   0  0  0  0  0  0  0  0  0  0  0  0
   -2.6395    1.9967   -4.0655 H   0  0  0  0  0  0  0  0  0  0  0  0
   -1.4789    1.1374   -5.0492 H   0  0  0  0  0  0  0  0  0  0  0  0
   -1.4827    0.9236   -3.3150 H   0  0  0  0  0  0  0  0  0  0  0  0
    0.1860    3.4153   -2.8578 C   0  0  2  0  0  0  0  0  0  0  0  0
   -0.5595    4.5997   -2.2645 C   0  0  0  0  0  0  0  0  0  0  0  0
   -0.7465    5.3233   -3.0301 H   0  0  0  0  0  0  0  0  0  0  0  0
   -1.4897    4.2663   -1.8540 H   0  0  0  0  0  0  0  0  0  0  0  0
    0.0329    5.0431   -1.4916 H   0  0  0  0  0  0  0  0  0  0  0  0
    0.5022    6.0861   -4.0597 C   0  0  2  0  0  0  0  0  0  0  0  0
   -0.8086    5.6548   -3.4224 C   0  0  0  0  0  0  0  0  0  0  0  0
   -1.4202    5.1723   -4.1560 H   0  0  0  0  0  0  0  0  0  0  0  0
   -0.6088    4.9743   -2.6213 H   0  0  0  0  0  0  0  0  0  0  0  0
   -1.3197    6.5141   -3.0414 H   0  0  0  0  0  0  0  0  0  0  0  0
    1.2282    4.8653   -4.6011 C   0  0  2  0  0  0  0  0  0  0  0  0
    2.5389    5.2970   -5.2383 C   0  0  0  0  0  0  0  0  0  0  0  0
    3.0502    4.4377   -5.6193 H   0  0  0  0  0  0  0  0  0  0  0  0
    2.3389    5.9774   -6.0395 H   0  0  0  0  0  0  0  0  0  0  0  0
    3.1502    5.7796   -4.5047 H   0  0  0  0  0  0  0  0  0  0  0  0
    0.4115    4.2205   -5.5809 C   0  0  2  0  0  0  0  0  0  0  0  0
    0.3030    4.2066   -7.0969 C   0  0  0  0  0  0  0  0  0  0  0  0
    0.0940    5.1954   -7.4486 H   0  0  0  0  0  0  0  0  0  0  0  0
    1.2260    3.8662   -7.5175 H   0  0  0  0  0  0  0  0  0  0  0  0
   -0.4876    3.5486   -7.3919 H   0  0  0  0  0  0  0  0  0  0  0  0
   -0.8614    3.7954   -5.0906 C   0  0  1  0  0  0  0  0  0  0  0  0
   -2.1931    4.0361   -5.7828 C   0  0  0  0  0  0  0  0  0  0  0  0
   -2.3545    5.0884   -5.8896 H   0  0  0  0  0  0  0  0  0  0  0  0
   -2.1808    3.5772   -6.7493 H   0  0  0  0  0  0  0  0  0  0  0  0
   -2.9815    3.6121   -5.1966 H   0  0  0  0  0  0  0  0  0  0  0  0
    3.3670    2.4053   -4.2124 C   0  0  2  0  0  0  0  0  0  0  0  0
    1.9254    2.8512   -4.0303 C   0  0  0  0  0  0  0  0  0  0  0  0
    1.9067    3.8495   -3.6457 H   0  0  0  0  0  0  0  0  0  0  0  0
    1.4214    2.8230   -4.9738 H   0  0  0  0  0  0  0  0  0  0  0  0
    1.4331    2.1950   -3.3433 H   0  0  0  0  0  0  0  0  0  0  0  0
    4.3993    1.5686   -3.4502 C   0  0  2  0  0  0  0  0  0  0  0  0
    5.2895    2.4846   -2.6263 C   0  0  0  0  0  0  0  0  0  0  0  0
    5.7953    3.1687   -3.2753 H   0  0  0  0  0  0  0  0  0  0  0  0
    4.6901    3.0316   -1.9289 H   0  0  0  0  0  0  0  0  0  0  0  0
    6.0098    1.8985   -2.0948 H   0  0  0  0  0  0  0  0  0  0  0  0
    6.8325    2.7077   -4.6583 C   0  0  2  0  0  0  0  0  0  0  0  0
    6.0305    3.4748   -3.6197 C   0  0  0  0  0  0  0  0  0  0  0  0
    5.2720    4.0500   -4.1082 H   0  0  0  0  0  0  0  0  0  0  0  0
    5.5735    2.7851   -2.9411 H   0  0  0  0  0  0  0  0  0  0  0  0
    6.6814    4.1293   -3.0785 H   0  0  0  0  0  0  0  0  0  0  0  0
    5.9079    1.7779   -5.4271 C   0  0  2  0  0  0  0  0  0  0  0  0
    6.7102    1.0110   -6.4656 C   0  0  0  0  0  0  0  0  0  0  0  0
    6.0596    0.3563   -7.0068 H   0  0  0  0  0  0  0  0  0  0  0  0
    7.1670    1.7009   -7.1441 H   0  0  0  0  0  0  0  0  0  0  0  0
    7.4689    0.4361   -5.9769 H   0  0  0  0  0  0  0  0  0  0  0  0
    4.8945    2.5459   -6.0797 C   0  0  2  0  0  0  0  0  0  0  0  0
    4.6580    3.1142   -7.4695 C   0  0  0  0  0  0  0  0  0  0  0  0
    5.4503    3.7888   -7.7186 H   0  0  0  0  0  0  0  0  0  0  0  0
    4.6322    2.3159   -8.1815 H   0  0  0  0  0  0  0  0  0  0  0  0
    3.7250    3.6378   -7.4867 H   0  0  0  0  0  0  0  0  0  0  0  0
    4.0943    3.3291   -5.1922 C   0  0  2  0  0  0  0  0  0  0  0  0
    3.7430    4.7947   -5.3898 C   0  0  0  0  0  0  0  0  0  0  0  0
    4.6412    5.3753   -5.4239 H   0  0  0  0  0  0  0  0  0  0  0  0
    3.2072    4.9123   -6.3084 H   0  0  0  0  0  0  0  0  0  0  0  0
    3.1335    5.1282   -4.5761 H   0  0  0  0  0  0  0  0  0  0  0  0
    2.0512    0.5852   -2.4153 C   0  0  0  0  0  3  0  0  0  0  0  0
    2.4495    1.2780   -3.1268 H   0  0  0  0  0  0  0  0  0  0  0  0
    2.5046    0.9798   -1.0062 C   0  0  0  0  0  3  0  0  0  0  0  0
    3.5734    1.0156   -0.9703 H   0  0  0  0  0  0  0  0  0  0  0  0
  1  2  1  0  0  0  0
  2  3  1  0  0  0  0
  2 86  1  0  0  0  0
  3  4  1  0  0  0  0
  3  5  1  0  0  0  0
  5  6  1  0  0  0  0
  5  7  1  0  0  0  0
  7  8  1  0  0  0  0
  7 84  1  0  0  0  0
  8  9  1  0  0  0  0
  8 20  1  0  0  0  0
  8 22  1  0  0  0  0
  9 10  1  0  0  0  0
  9 18  1  0  0  0  0
 10 11  1  0  0  0  0
 10 12  1  0  0  0  0
 12 13  1  0  0  0  0
 12 14  1  0  0  0  0
 14 15  1  0  0  0  0
 14 16  1  0  0  0  0
 16 17  1  0  0  0  0
 16 18  1  0  0  0  0
 18 19  1  0  0  0  0
 20 21  1  0  0  0  0
 20 22  1  0  0  0  0
 20 23  1  0  0  0  0
 20 54  1  0  0  0  0
 20 59  1  0  0  0  0
 20 64  1  0  0  0  0
 20 69  1  0  0  0  0
 20 74  1  0  0  0  0
 20 79  1  0  0  0  0
 21 22  1  0  0  0  0
 22 23  1  0  0  0  0
 22 24  1  0  0  0  0
 22 29  1  0  0  0  0
 22 34  1  0  0  0  0
 22 39  1  0  0  0  0
 22 44  1  0  0  0  0
 22 49  1  0  0  0  0
 24 25  1  1  0  0  0
 24 29  1  0  0  0  0
 24 49  1  0  0  0  0
 25 26  1  0  0  0  0
 25 27  1  0  0  0  0
 25 28  1  0  0  0  0
 29 30  1  6  0  0  0
 29 34  1  0  0  0  0
 30 31  1  0  0  0  0
 30 32  1  0  0  0  0
 30 33  1  0  0  0  0
 34 35  1  6  0  0  0
 34 39  1  0  0  0  0
 35 36  1  0  0  0  0
 35 37  1  0  0  0  0
 35 38  1  0  0  0  0
 39 40  1  1  0  0  0
 39 44  1  0  0  0  0
 40 41  1  0  0  0  0
 40 42  1  0  0  0  0
 40 43  1  0  0  0  0
 44 45  1  1  0  0  0
 44 49  1  0  0  0  0
 45 46  1  0  0  0  0
 45 47  1  0  0  0  0
 45 48  1  0  0  0  0
 49 50  1  6  0  0  0
 50 51  1  0  0  0  0
 50 52  1  0  0  0  0
 50 53  1  0  0  0  0
 54 55  1  1  0  0  0
 54 59  1  0  0  0  0
 54 79  1  0  0  0  0
 55 56  1  0  0  0  0
 55 57  1  0  0  0  0
 55 58  1  0  0  0  0
 59 60  1  6  0  0  0
 59 64  1  0  0  0  0
 60 61  1  0  0  0  0
 60 62  1  0  0  0  0
 60 63  1  0  0  0  0
 64 65  1  6  0  0  0
 64 69  1  0  0  0  0
 65 66  1  0  0  0  0
 65 67  1  0  0  0  0
 65 68  1  0  0  0  0
 69 70  1  1  0  0  0
 69 74  1  0  0  0  0
 70 71  1  0  0  0  0
 70 72  1  0  0  0  0
 70 73  1  0  0  0  0
 74 75  1  1  0  0  0
 74 79  1  0  0  0  0
 75 76  1  0  0  0  0
 75 77  1  0  0  0  0
 75 78  1  0  0  0  0
 79 80  1  1  0  0  0
 80 81  1  0  0  0  0
 80 82  1  0  0  0  0
 80 83  1  0  0  0  0
 84 85  1  0  0  0  0
 84 86  1  0  0  0  0
 86 87  1  0  0  0  0
M  CHG  1   8   1
M  END
$$$$
