
  --CCDC--092525    3D                              

 34 33  0  0  0  0  0  0  0  0999 V2000
    0.0000    0.0000   -0.0000 Br     0
    1.6400    2.8406   -0.0000 La     0
    2.6477    1.6679    2.8927 Br     0
    2.6517    3.5985   -3.0266 Br     0
   -0.2501    3.4364    1.9066 N      0
   -1.0343    3.6837    2.6976 C      0
   -2.0392    3.9639    3.7138 C      0
   -0.5573    3.0841   -1.6356 N      0
   -1.4691    3.1847   -2.3141 C      0
   -2.6199    3.2864   -3.2007 C      0
    3.3105    0.8510   -0.9020 N      0
    4.0032    0.0270   -1.2774 C      0
    4.8653   -1.0318   -1.7842 C      0
    1.3220    5.5698    0.1122 N      0
    1.1899    6.7010    0.1578 C      0
    1.0457    8.1498    0.1898 C      0
    4.0569    3.9908    0.6310 N      0
    5.0597    4.4680    0.8927 C      0
    6.3385    5.0955    1.1958 C      0
   -2.4429    3.0398    4.1221 H      0
   -2.8629    4.5373    3.2938 H      0
   -1.6100    4.5373    4.5328 H      0
   -2.9810    2.2985   -3.4789 H      0
   -2.3589    3.8208   -4.1118 H      0
   -3.4343    3.8208   -2.7159 H      0
    4.8700   -1.0376   -2.8722 H      0
    4.5221   -2.0057   -1.4416 H      0
    5.8886   -0.8931   -1.4416 H      0
    1.0053    8.5558   -0.8188 H      0
    1.8853    8.6097    0.7068 H      0
    0.1319    8.4352    0.7068 H      0
    6.8672    5.3549    0.2809 H      0
    6.9703    4.4241    1.7736 H      0
    6.1940    6.0060    1.7736 H      0
  1  2  1
  2  3  1
  2  4  1
  2  5  1
  5  6  3
  6  7  1
  2  8  1
  8  9  3
  9 10  1
  2 11  1
 11 12  3
 12 13  1
  2 14  1
 14 15  3
 15 16  1
  2 17  1
 17 18  3
 18 19  1
  7 20  1
  7 21  1
  7 22  1
 10 23  1
 10 24  1
 10 25  1
 13 26  1
 13 27  1
 13 28  1
 16 29  1
 16 30  1
 16 31  1
 19 32  1
 19 33  1
 19 34  1
M  END
$$$$
