
 OpenBabel09252519393D

 23 24  0  0  1  0  0  0  0  0999 V2000
   10.0464   -1.0636   -7.5911 H   0  0  0  0  0  0  0  0  0  0  0  0
    9.4462   -0.4687   -6.9122 C   0  0  0  0  0  3  0  0  0  0  0  0
    9.9639   -0.1404   -5.5937 C   0  0  0  0  0  3  0  0  0  0  0  0
   10.9550   -0.4848   -5.3187 H   0  0  0  0  0  0  0  0  0  0  0  0
    9.0537    0.3033   -4.5428 C   0  0  0  0  0  3  0  0  0  0  0  0
    9.4202    0.3081   -3.5204 H   0  0  0  0  0  0  0  0  0  0  0  0
    7.5950    0.3284   -4.7828 C   0  0  0  0  0  3  0  0  0  0  0  0
    6.5731   -0.2816   -3.4697 S   0  0  0  0  0  0  0  0  0  0  0  0
    6.3892   -1.7095   -3.6833 O   0  0  0  0  0  0  0  0  0  0  0  0
    7.1673    0.1616   -2.2156 O   0  0  0  0  0  0  0  0  0  0  0  0
    4.9575    0.4949   -3.5588 C   0  0  2  0  0  0  0  0  0  0  0  0
    4.2639    0.0461   -2.8381 H   0  0  0  0  0  0  0  0  0  0  0  0
    4.4244    0.4255   -4.9306 N   0  0  0  0  0  0  0  0  0  0  0  0
    3.8194   -0.2760   -5.3390 H   0  0  0  0  0  0  0  0  0  0  0  0
    4.0148    1.7231   -4.9121 C   0  0  0  0  0  0  0  0  0  0  0  0
    3.2226    2.2985   -5.6144 O   0  0  0  0  0  0  0  0  0  0  0  0
    4.8774    2.0201   -3.6688 C   0  0  0  0  0  0  0  0  0  0  0  0
    4.3356    2.5079   -2.8546 H   0  0  0  0  0  0  0  0  0  0  0  0
    5.8010    2.5596   -3.8879 H   0  0  0  0  0  0  0  0  0  0  0  0
    7.1506    0.2618   -6.1822 C   0  0  0  0  0  3  0  0  0  0  0  0
    6.2943    0.8357   -6.5121 H   0  0  0  0  0  0  0  0  0  0  0  0
    8.0457   -0.2386   -7.2150 C   0  0  0  0  0  3  0  0  0  0  0  0
    7.6569   -0.4708   -8.1992 H   0  0  0  0  0  0  0  0  0  0  0  0
  1  2  1  0  0  0  0
  2  3  1  0  0  0  0
  2 22  1  0  0  0  0
  3  4  1  0  0  0  0
  3  5  1  0  0  0  0
  5  6  1  0  0  0  0
  5  7  1  0  0  0  0
  7  8  1  0  0  0  0
  7 20  1  0  0  0  0
  8  9  2  0  0  0  0
  8 10  2  0  0  0  0
 11 13  1  0  0  0  0
 11 17  1  0  0  0  0
 11 12  1  1  0  0  0
 11  8  1  0  0  0  0
 13 14  1  0  0  0  0
 13 15  1  0  0  0  0
 15 16  2  0  0  0  0
 15 17  1  0  0  0  0
 17 18  1  0  0  0  0
 17 19  1  0  0  0  0
 20 21  1  0  0  0  0
 20 22  1  0  0  0  0
 22 23  1  0  0  0  0
M  END
$$$$
