
  --CCDC--092525    3D                              

 57 64  0  0  0  0  0  0  0  0999 V2000
    0.0364    0.1077   -5.0214 H      0
   -0.5132   -0.5757   -4.3827 C      0
   -1.8541   -0.6256   -4.2289 C      0
   -2.5898   -0.0039   -4.7283 H      0
   -2.0946   -1.5794   -3.2310 N      0
   -0.9534   -2.2754   -2.8602 C      0
    0.0320   -1.5067   -3.4842 N      0
    1.3852   -1.7856   -3.0282 C      0
    2.1256   -1.5468   -3.8017 H      0
    1.4955   -2.8276   -2.7034 H      0
    1.4716   -0.8634   -1.9048 N      0
    2.0934    0.3854   -1.9843 C      0
    2.6922    0.7670   -2.8045 H      0
    1.6761    1.0738   -0.9238 C      0
    1.8763    2.1191   -0.7134 H      0
    0.8092    0.2264   -0.2291 N      0
    0.8083   -1.1238   -0.6517 C      0
   -1.1836   -2.0847   -0.7058 Fe     0
   -1.3028   -2.0333    1.4908 N      0
   -1.3647   -2.0067    2.6300 C      0
   -1.4282   -1.9390    4.0834 C      0
   -2.3602   -2.3648    4.4492 H      0
   -1.3697   -0.9075    4.4245 H      0
   -0.6046   -2.4911    4.5314 H      0
   -0.4778   -4.1592   -0.5096 N      0
   -0.1142   -5.2358   -0.4070 C      0
    0.3236   -6.6207   -0.3007 C      0
   -0.5308   -7.2924   -0.2520 H      0
    0.9220   -6.7683    0.5959 H      0
    0.9271   -6.9016   -1.1613 H      0
   -1.9302   -0.0005   -0.7666 C      0
   -1.4955    0.6929    0.3993 N      0
   -2.5305    1.4344    0.9810 C      0
   -2.4455    2.0852    1.8449 H      0
   -3.6592    1.1440    0.3178 C      0
   -4.6526    1.5064    0.5604 H      0
   -3.3357    0.2274   -0.6934 N      0
   -4.2979   -0.5249   -1.5541 C      0
   -5.3016   -0.1509   -1.2830 H      0
   -4.2141   -0.1135   -2.5781 H      0
   -4.3223   -2.0678   -1.5262 N      0
   -5.3192   -2.5444   -0.7084 C      0
   -6.3329   -2.5371   -0.3423 H      0
   -4.4667   -1.8029   -0.0143 C      0
   -4.5998   -1.3071    0.9411 H      0
   -3.4504   -1.6631   -1.0089 N      0
   -3.2445   -2.9142   -0.9398 C      0
   -3.2486   -2.0994   -2.4943 C      0
   -4.0817   -2.0032   -3.2298 H      0
   -3.0153   -3.1856   -2.5091 H      0
   -0.0925    0.6398    0.8413 C      0
    0.0132   -0.0392    1.6947 H      0
    0.2045    1.6387    1.1840 H      0
   -0.9784   -3.3199   -3.2075 H      0
    1.3949   -1.6423    0.1371 H      0
   -1.5473    0.5509   -1.6447 H      0
   -3.6430   -3.2129    0.0571 H      0
  1  2  1
  2  3  2
  3  4  1
  3  5  1
  5  6  1
  6  7  1
  2  7  1
  7  8  1
  8  9  1
  8 10  1
  8 11  1
 11 12  1
 12 13  1
 12 14  2
 14 15  1
 14 16  1
 16 17  1
 11 17  1
 17 18  1
  6 18  1
 18 19  1
 19 20  3
 20 21  1
 21 22  1
 21 23  1
 21 24  1
 18 25  1
 25 26  3
 26 27  1
 27 28  1
 27 29  1
 27 30  1
 18 31  1
 31 32  1
 32 33  1
 33 34  1
 33 35  2
 35 36  1
 35 37  1
 31 37  1
 37 38  1
 38 39  1
 38 40  1
 38 41  1
 41 42  1
 42 43  1
 42 44  2
 44 45  1
 44 46  1
 46 47  1
 41 47  1
 18 47  1
 46 48  1
  5 48  1
 48 49  1
 48 50  1
 32 51  1
 16 51  1
 51 52  1
 51 53  1
  6 54  1
 17 55  1
 31 56  1
 47 57  1
M  END
$$$$
