
 OpenBabel09252515303D

 32 35  0  0  0  0  0  0  0  0999 V2000
    1.0815    0.1036    0.0913 O   0  0  0  0  0  0  0  0  0  0  0  0
    2.3046    0.1435    0.1556 C   0  0  0  0  0  0  0  0  0  0  0  0
    2.9475    1.3054    0.4469 N   0  0  0  0  0  0  0  0  0  0  0  0
    4.3234    1.4603    0.3136 C   0  0  0  0  0  0  0  0  0  0  0  0
    4.8572    2.7453    0.4638 C   0  0  0  0  0  0  0  0  0  0  0  0
    6.1966    2.9724    0.1750 C   0  0  0  0  0  0  0  0  0  0  0  0
    6.9706    1.9298   -0.3207 C   0  0  0  0  0  0  0  0  0  0  0  0
    6.4223    0.6469   -0.4632 C   0  0  0  0  0  0  0  0  0  0  0  0
    5.1099    0.3591   -0.0617 C   0  0  0  0  0  0  0  0  0  0  0  0
    4.5088   -1.0228   -0.0373 C   0  0  0  0  0  0  0  0  0  0  0  0
    3.1546   -1.0815   -0.0010 C   0  0  0  0  0  0  0  0  0  0  0  0
    2.3193   -2.3290   -0.0341 C   0  0  0  0  0  0  0  0  0  0  0  0
    3.0559   -3.6451   -0.2053 C   0  0  0  0  0  0  0  0  0  0  0  0
    4.5503   -3.5676   -0.1023 C   0  0  0  0  0  0  0  0  0  0  0  0
    5.2459   -4.7962   -0.1019 C   0  0  0  0  0  0  0  0  0  0  0  0
    6.6239   -4.8374    0.0539 C   0  0  0  0  0  0  0  0  0  0  0  0
    7.3109   -3.6529    0.2564 C   0  0  0  0  0  0  0  0  0  0  0  0
    6.6202   -2.4335    0.2705 C   0  0  0  0  0  0  0  0  0  0  0  0
    5.2374   -2.3438    0.0244 C   0  0  0  0  0  0  0  0  0  0  0  0
    2.3515    2.1083    0.5923 H   0  0  0  0  0  0  0  0  0  0  0  0
    4.2324    3.5744    0.7842 H   0  0  0  0  0  0  0  0  0  0  0  0
    6.6222    3.9652    0.2941 H   0  0  0  0  0  0  0  0  0  0  0  0
    8.0047    2.1110   -0.6044 H   0  0  0  0  0  0  0  0  0  0  0  0
    7.0504   -0.1107   -0.9206 H   0  0  0  0  0  0  0  0  0  0  0  0
    1.7286   -2.3795    0.8908 H   0  0  0  0  0  0  0  0  0  0  0  0
    1.5889   -2.2527   -0.8513 H   0  0  0  0  0  0  0  0  0  0  0  0
    2.6915   -4.3355    0.5687 H   0  0  0  0  0  0  0  0  0  0  0  0
    2.7901   -4.0914   -1.1714 H   0  0  0  0  0  0  0  0  0  0  0  0
    4.6990   -5.7313   -0.2109 H   0  0  0  0  0  0  0  0  0  0  0  0
    7.1498   -5.7877    0.0492 H   0  0  0  0  0  0  0  0  0  0  0  0
    8.3857   -3.6688    0.4186 H   0  0  0  0  0  0  0  0  0  0  0  0
    7.2113   -1.5594    0.5160 H   0  0  0  0  0  0  0  0  0  0  0  0
  1  2  2  0  0  0  0
  2  3  1  0  0  0  0
  2 11  1  0  0  0  0
  3  4  1  0  0  0  0
  3 20  1  0  0  0  0
  4  5  1  0  0  0  0
  4  9  2  0  0  0  0
  5  6  2  0  0  0  0
  5 21  1  0  0  0  0
  6  7  1  0  0  0  0
  6 22  1  0  0  0  0
  7  8  2  0  0  0  0
  7 23  1  0  0  0  0
  8  9  1  0  0  0  0
  8 24  1  0  0  0  0
  9 10  1  0  0  0  0
 10 11  2  0  0  0  0
 10 19  1  0  0  0  0
 11 12  1  0  0  0  0
 12 13  1  0  0  0  0
 12 25  1  0  0  0  0
 12 26  1  0  0  0  0
 13 14  1  0  0  0  0
 13 27  1  0  0  0  0
 13 28  1  0  0  0  0
 14 15  1  0  0  0  0
 14 19  2  0  0  0  0
 15 16  2  0  0  0  0
 15 29  1  0  0  0  0
 16 17  1  0  0  0  0
 16 30  1  0  0  0  0
 17 18  2  0  0  0  0
 17 31  1  0  0  0  0
 18 19  1  0  0  0  0
 18 32  1  0  0  0  0
M  END
$$$$
