
     RDKit          3D

 32 35  0  0  0  0  0  0  0  0999 V2000
   -1.0831   -3.7297    0.5108 O   0  0  0  0  0  0  0  0  0  0  0  0
   -1.1517   -2.5041    0.5089 C   0  0  0  0  0  0  0  0  0  0  0  0
   -2.2856   -1.8675    0.9150 N   0  0  0  0  0  0  0  0  0  0  0  0
   -2.3854   -0.4826    1.0419 C   0  0  0  0  0  0  0  0  0  0  0  0
   -3.5436    0.0564    1.6107 C   0  0  0  0  0  0  0  0  0  0  0  0
   -3.6226    1.4251    1.8511 C   0  0  0  0  0  0  0  0  0  0  0  0
   -2.5384    2.2411    1.5441 C   0  0  0  0  0  0  0  0  0  0  0  0
   -1.3877    1.6944    0.9648 C   0  0  0  0  0  0  0  0  0  0  0  0
   -1.3069    0.3278    0.6580 C   0  0  0  0  0  0  0  0  0  0  0  0
   -0.1145   -0.2953    0.0118 C   0  0  0  0  0  0  0  0  0  0  0  0
   -0.0240   -1.6481    0.0387 C   0  0  0  0  0  0  0  0  0  0  0  0
    1.2135   -2.3964   -0.3944 C   0  0  0  0  0  0  0  0  0  0  0  0
    2.4728   -1.5585   -0.1645 C   0  0  0  0  0  0  0  0  0  0  0  0
    2.2821   -0.1881   -0.7558 C   0  0  0  0  0  0  0  0  0  0  0  0
    3.3540    0.4729   -1.3722 C   0  0  0  0  0  0  0  0  0  0  0  0
    3.1530    1.7031   -1.9914 C   0  0  0  0  0  0  0  0  0  0  0  0
    1.8814    2.2668   -2.0109 C   0  0  0  0  0  0  0  0  0  0  0  0
    0.8158    1.6183   -1.3792 C   0  0  0  0  0  0  0  0  0  0  0  0
    1.0048    0.4072   -0.6976 C   0  0  0  0  0  0  0  0  0  0  0  0
   -3.0358   -2.4678    1.2277 H   0  0  0  0  0  0  0  0  0  0  0  0
   -4.3766   -0.5822    1.8905 H   0  0  0  0  0  0  0  0  0  0  0  0
   -4.5156    1.8501    2.3018 H   0  0  0  0  0  0  0  0  0  0  0  0
   -2.5800    3.3056    1.7630 H   0  0  0  0  0  0  0  0  0  0  0  0
   -0.5491    2.3608    0.7835 H   0  0  0  0  0  0  0  0  0  0  0  0
    1.1144   -2.6618   -1.4548 H   0  0  0  0  0  0  0  0  0  0  0  0
    1.3317   -3.3314    0.1652 H   0  0  0  0  0  0  0  0  0  0  0  0
    3.3286   -2.0666   -0.6241 H   0  0  0  0  0  0  0  0  0  0  0  0
    2.6819   -1.4570    0.9077 H   0  0  0  0  0  0  0  0  0  0  0  0
    4.3426    0.0203   -1.3915 H   0  0  0  0  0  0  0  0  0  0  0  0
    3.9814    2.2088   -2.4804 H   0  0  0  0  0  0  0  0  0  0  0  0
    1.7132    3.2097   -2.5250 H   0  0  0  0  0  0  0  0  0  0  0  0
   -0.1706    2.0684   -1.4535 H   0  0  0  0  0  0  0  0  0  0  0  0
  1  2  2  0
  2  3  1  0
  3  4  1  0
  4  5  2  0
  5  6  1  0
  6  7  2  0
  7  8  1  0
  8  9  2  0
  9 10  1  0
 10 11  2  0
 11 12  1  0
 12 13  1  0
 13 14  1  0
 14 15  2  0
 15 16  1  0
 16 17  2  0
 17 18  1  0
 18 19  2  0
 11  2  1  0
 19 14  1  0
  9  4  1  0
 19 10  1  0
  3 20  1  0
  5 21  1  0
  6 22  1  0
  7 23  1  0
  8 24  1  0
 12 25  1  0
 12 26  1  0
 13 27  1  0
 13 28  1  0
 15 29  1  0
 16 30  1  0
 17 31  1  0
 18 32  1  0
M  END
