
 OpenBabel09252515203D

 23 24  0  0  1  0  0  0  0  0999 V2000
    9.9467   -1.1225   -7.5698 H   0  0  0  0  0  0  0  0  0  0  0  0
    9.3423   -0.5348   -6.8884 C   0  0  0  0  0  3  0  0  0  0  0  0
    9.8571   -0.2084   -5.5684 C   0  0  0  0  0  3  0  0  0  0  0  0
   10.8501   -0.5478   -5.2940 H   0  0  0  0  0  0  0  0  0  0  0  0
    8.9438    0.2270   -4.5169 C   0  0  0  0  0  3  0  0  0  0  0  0
    9.3095    0.2299   -3.4941 H   0  0  0  0  0  0  0  0  0  0  0  0
    7.4853    0.2483   -4.7583 C   0  0  0  0  0  3  0  0  0  0  0  0
    6.4624   -0.3581   -3.4445 S   0  0  0  0  0  0  0  0  0  0  0  0
    6.2730   -1.7853   -3.6580 O   0  0  0  0  0  0  0  0  0  0  0  0
    7.0591    0.0827   -2.1907 O   0  0  0  0  0  0  0  0  0  0  0  0
    4.8498    0.4247   -3.5320 C   0  0  2  0  0  0  0  0  0  0  0  0
    4.1564   -0.0186   -2.8079 H   0  0  0  0  0  0  0  0  0  0  0  0
    4.3128    0.3516   -4.9022 N   0  0  0  0  0  0  0  0  0  0  0  0
    3.7041   -0.3494   -5.3059 H   0  0  0  0  0  0  0  0  0  0  0  0
    3.9074    1.6507   -4.8878 C   0  0  0  0  0  0  0  0  0  0  0  0
    3.1151    2.2257   -5.5897 O   0  0  0  0  0  0  0  0  0  0  0  0
    4.7749    1.9497   -3.6480 C   0  0  0  0  0  0  0  0  0  0  0  0
    4.2372    2.4428   -2.8344 H   0  0  0  0  0  0  0  0  0  0  0  0
    5.6997    2.4851   -3.8721 H   0  0  0  0  0  0  0  0  0  0  0  0
    7.0419    0.1804   -6.1580 C   0  0  0  0  0  3  0  0  0  0  0  0
    6.1790    0.7446   -6.4871 H   0  0  0  0  0  0  0  0  0  0  0  0
    7.9411   -0.3102   -7.1919 C   0  0  0  0  0  3  0  0  0  0  0  0
    7.5559   -0.5356   -8.1791 H   0  0  0  0  0  0  0  0  0  0  0  0
  1  2  1  0  0  0  0
  2  3  1  0  0  0  0
  2 22  1  0  0  0  0
  3  4  1  0  0  0  0
  3  5  1  0  0  0  0
  5  6  1  0  0  0  0
  5  7  1  0  0  0  0
  7  8  1  0  0  0  0
  7 20  1  0  0  0  0
  8  9  2  0  0  0  0
  8 10  2  0  0  0  0
 11 13  1  0  0  0  0
 11 17  1  0  0  0  0
 11 12  1  1  0  0  0
 11  8  1  0  0  0  0
 13 14  1  0  0  0  0
 13 15  1  0  0  0  0
 15 16  2  0  0  0  0
 15 17  1  0  0  0  0
 17 18  1  0  0  0  0
 17 19  1  0  0  0  0
 20 21  1  0  0  0  0
 20 22  1  0  0  0  0
 22 23  1  0  0  0  0
M  END
$$$$
