
 OpenBabel09252518563D

 62 63  0  0  0  0  0  0  0  0999 V2000
    0.9701    0.0953    0.0041 C   0  0  0  0  0  0  0  0  0  0  0  0
    0.2634    0.1936    2.0004 Pt  0  0  0  0  0  0  0  0  0  0  0  0
    1.9944    1.2824    2.5596 C   0  0  0  0  0  0  0  0  0  0  0  0
   -0.7359    2.0100    1.5572 C   0  0  0  0  0  0  0  0  0  0  0  0
   -0.4266    0.2896    3.9497 N   0  0  0  0  0  0  0  0  0  0  0  0
   -1.0836   -0.9805    4.9250 N   0  0  0  0  0  0  0  0  0  0  0  0
   -1.3782   -0.0671    6.4165 C   0  0  0  0  0  0  0  0  0  0  0  0
   -1.9077   -0.6291    7.7064 C   0  0  0  0  0  0  0  0  0  0  0  0
   -0.7047   -0.8139    8.6494 C   0  0  0  0  0  0  0  0  0  0  0  0
    0.0365    0.5240    8.7484 C   0  0  0  0  0  0  0  0  0  0  0  0
   -0.9567    1.4961    9.3497 C   0  0  0  0  0  0  0  0  0  0  0  0
   -1.9131    2.1022    8.3392 C   0  0  0  0  0  0  0  0  0  0  0  0
   -1.2221    2.4329    7.0231 C   0  0  0  0  0  0  0  0  0  0  0  0
   -1.0278    1.2022    6.1393 C   0  0  0  0  0  0  0  0  0  0  0  0
   -0.4712    1.3837    4.7933 N   0  0  0  0  0  0  0  0  0  0  0  0
   -1.7206   -1.0544    1.3595 P   0  0  0  0  0  4  0  0  0  0  0  0
   -1.3140   -2.1761   -0.0281 C   0  0  0  0  0  0  0  0  0  0  0  0
   -2.3101   -2.0376    2.7860 C   0  0  0  0  0  0  0  0  0  0  0  0
   -3.0320    0.1105    0.8380 C   0  0  0  0  0  0  0  0  0  0  0  0
    1.4090   -1.8884    2.5084 P   0  0  0  0  0  4  0  0  0  0  0  0
    0.7641   -3.2184    1.4295 C   0  0  0  0  0  0  0  0  0  0  0  0
    3.2041   -1.6836    2.2176 C   0  0  0  0  0  0  0  0  0  0  0  0
    1.1214   -2.3310    4.2606 C   0  0  0  0  0  0  0  0  0  0  0  0
    0.6134    0.9431   -0.5427 H   0  0  0  0  0  0  0  0  0  0  0  0
    0.6135   -0.8021   -0.4568 H   0  0  0  0  0  0  0  0  0  0  0  0
    2.0401    0.0953    0.0041 H   0  0  0  0  0  0  0  0  0  0  0  0
    2.3391    1.8573    1.7255 H   0  0  0  0  0  0  0  0  0  0  0  0
    1.7566    1.9383    3.3709 H   0  0  0  0  0  0  0  0  0  0  0  0
    2.7612    0.6013    2.8645 H   0  0  0  0  0  0  0  0  0  0  0  0
   -1.7855    1.8903    1.7272 H   0  0  0  0  0  0  0  0  0  0  0  0
   -0.3589    2.7877    2.1881 H   0  0  0  0  0  0  0  0  0  0  0  0
   -0.5678    2.2688    0.5327 H   0  0  0  0  0  0  0  0  0  0  0  0
   -2.6321    0.0291    8.1388 H   0  0  0  0  0  0  0  0  0  0  0  0
   -2.3824   -1.5714    7.5285 H   0  0  0  0  0  0  0  0  0  0  0  0
   -0.0509   -1.5714    8.2703 H   0  0  0  0  0  0  0  0  0  0  0  0
   -1.0467   -1.1111    9.6188 H   0  0  0  0  0  0  0  0  0  0  0  0
    0.3854    0.8549    7.7926 H   0  0  0  0  0  0  0  0  0  0  0  0
    0.8954    0.4294    9.3794 H   0  0  0  0  0  0  0  0  0  0  0  0
   -1.5509    0.9421   10.0460 H   0  0  0  0  0  0  0  0  0  0  0  0
   -0.4112    2.2901    9.8155 H   0  0  0  0  0  0  0  0  0  0  0  0
   -2.6788    1.3825    8.1375 H   0  0  0  0  0  0  0  0  0  0  0  0
   -2.3235    3.0014    8.7488 H   0  0  0  0  0  0  0  0  0  0  0  0
   -1.8468    3.1198    6.4914 H   0  0  0  0  0  0  0  0  0  0  0  0
   -0.2632    2.8573    7.2361 H   0  0  0  0  0  0  0  0  0  0  0  0
   -0.5472   -2.8572    0.2769 H   0  0  0  0  0  0  0  0  0  0  0  0
   -2.1876   -2.7256   -0.3103 H   0  0  0  0  0  0  0  0  0  0  0  0
   -0.9693   -1.6012   -0.8621 H   0  0  0  0  0  0  0  0  0  0  0  0
   -2.5479   -1.3817    3.5973 H   0  0  0  0  0  0  0  0  0  0  0  0
   -3.1838   -2.5871    2.5038 H   0  0  0  0  0  0  0  0  0  0  0  0
   -1.5433   -2.7187    3.0909 H   0  0  0  0  0  0  0  0  0  0  0  0
   -3.2698    0.7664    1.6493 H   0  0  0  0  0  0  0  0  0  0  0  0
   -2.6874    0.6854    0.0039 H   0  0  0  0  0  0  0  0  0  0  0  0
   -3.9057   -0.4390    0.5558 H   0  0  0  0  0  0  0  0  0  0  0  0
    0.9322   -2.9596    0.4050 H   0  0  0  0  0  0  0  0  0  0  0  0
    1.2685   -4.1352    1.6531 H   0  0  0  0  0  0  0  0  0  0  0  0
   -0.2855   -3.3381    1.5995 H   0  0  0  0  0  0  0  0  0  0  0  0
    3.5811   -0.9059    2.8485 H   0  0  0  0  0  0  0  0  0  0  0  0
    3.7085   -2.6004    2.4413 H   0  0  0  0  0  0  0  0  0  0  0  0
    3.3722   -1.4248    1.1931 H   0  0  0  0  0  0  0  0  0  0  0  0
    1.4985   -1.5534    4.8914 H   0  0  0  0  0  0  0  0  0  0  0  0
    0.0718   -2.4508    4.4306 H   0  0  0  0  0  0  0  0  0  0  0  0
    1.6258   -3.2478    4.4843 H   0  0  0  0  0  0  0  0  0  0  0  0
  1  2  1  0  0  0  0
  1 24  1  0  0  0  0
  1 25  1  0  0  0  0
  1 26  1  0  0  0  0
  2  3  1  0  0  0  0
  2  4  1  0  0  0  0
  2  5  1  0  0  0  0
  2 16  1  0  0  0  0
  2 20  1  0  0  0  0
  3 27  1  0  0  0  0
  3 28  1  0  0  0  0
  3 29  1  0  0  0  0
  4 30  1  0  0  0  0
  4 31  1  0  0  0  0
  4 32  1  0  0  0  0
  5  6  1  0  0  0  0
  5 15  1  0  0  0  0
  6  7  2  0  0  0  0
  7  8  1  0  0  0  0
  7 14  1  0  0  0  0
  8  9  1  0  0  0  0
  8 33  1  0  0  0  0
  8 34  1  0  0  0  0
  9 10  1  0  0  0  0
  9 35  1  0  0  0  0
  9 36  1  0  0  0  0
 10 11  1  0  0  0  0
 10 37  1  0  0  0  0
 10 38  1  0  0  0  0
 11 12  1  0  0  0  0
 11 39  1  0  0  0  0
 11 40  1  0  0  0  0
 12 13  1  0  0  0  0
 12 41  1  0  0  0  0
 12 42  1  0  0  0  0
 13 14  1  0  0  0  0
 13 43  1  0  0  0  0
 13 44  1  0  0  0  0
 14 15  2  0  0  0  0
 16 17  1  0  0  0  0
 16 18  1  0  0  0  0
 16 19  1  0  0  0  0
 17 45  1  0  0  0  0
 17 46  1  0  0  0  0
 17 47  1  0  0  0  0
 18 48  1  0  0  0  0
 18 49  1  0  0  0  0
 18 50  1  0  0  0  0
 19 51  1  0  0  0  0
 19 52  1  0  0  0  0
 19 53  1  0  0  0  0
 20 21  1  0  0  0  0
 20 22  1  0  0  0  0
 20 23  1  0  0  0  0
 21 54  1  0  0  0  0
 21 55  1  0  0  0  0
 21 56  1  0  0  0  0
 22 57  1  0  0  0  0
 22 58  1  0  0  0  0
 22 59  1  0  0  0  0
 23 60  1  0  0  0  0
 23 61  1  0  0  0  0
 23 62  1  0  0  0  0
M  END
$$$$
