
  --CCDC--092525    3D                              

 64 65  0  0  0  0  0  0  0  0999 V2000
    1.2683    2.4896   -1.2700 H      0
    1.6117    2.6550   -0.2499 C      0
    2.0819    1.7478    0.1265 H      0
    0.4207    2.9779    0.6156 C      0
   -0.6852    3.5044    0.1360 N      0
   -1.5386    3.7554    1.1347 N      0
   -2.8702    4.0628    1.0155 O      0
   -4.2300    4.5425    0.8626 C      0
   -4.4819    5.0594   -0.0424 H      0
   -4.9839    3.7689    0.9862 H      0
   -4.5652    5.2873    1.5692 H      0
   -3.2812    4.1695    2.4111 C      0
   -2.5579    3.9041    3.1752 H      0
   -4.1676    3.5712    2.6221 H      0
   -3.6049    5.1290    2.7856 H      0
   -2.9910    2.6443    1.2820 C      0
   -2.1992    2.0337    0.8705 H      0
   -3.9228    2.2012    0.9646 H      0
   -2.9426    2.3343    2.3236 H      0
   -3.0364    3.6941   -0.6418 P      0
   -1.8297    4.2899   -1.8743 C      0
   -2.3233    4.2635   -2.8436 H      0
   -0.9505    3.6642   -2.0064 H      0
   -1.5200    5.3156   -1.7404 H      0
   -2.6622    2.0041   -1.2173 C      0
   -3.3747    1.2789   -0.8286 H      0
   -1.6620    1.6721   -0.9512 H      0
   -2.7319    1.9652   -2.3024 H      0
   -4.6821    3.0757   -1.1567 C      0
   -5.1046    2.3454   -0.4727 H      0
   -4.5844    2.5784   -2.1194 H      0
   -5.4179    3.8646   -1.3019 H      0
   -2.2704    5.6307    1.0050 P      0
   -1.5275    6.1451    2.5945 C      0
   -2.2409    6.2703    3.4051 H      0
   -0.7319    5.4975    2.9456 H      0
   -1.0728    7.1235    2.4544 H      0
   -0.5559    5.9965    0.5128 C      0
    0.1517    5.5089    1.1802 H      0
   -0.3835    7.0666    0.6075 H      0
   -0.2798    5.7353   -0.4999 H      0
   -3.0049    6.7783   -0.2036 C      0
   -2.9503    6.4794   -1.2411 H      0
   -2.4966    7.7376   -0.1317 H      0
   -4.0505    6.9688    0.0286 H      0
   -0.9460    3.3720    2.2854 N      0
    0.2479    2.8925    2.0189 C      0
    1.2105    2.4448    3.1064 C      0
    1.5748    1.4522    2.8456 H      0
    0.6589    2.3942    4.0441 H      0
    2.4159    3.3469    3.3185 C      0
    2.9563    2.9637    4.1828 H      0
    2.0367    4.3435    3.5399 H      0
    3.4132    3.4890    2.1969 C      0
    3.5910    2.5031    1.7699 H      0
    4.3420    3.8777    2.6118 H      0
    2.9560    4.4309    1.0669 C      0
    3.7486    5.1583    0.8979 H      0
    2.0574    4.9452    1.4046 H      0
    2.6424    3.7727   -0.2567 C      0
    2.2806    4.5479   -0.9305 H      0
    3.5718    3.3589   -0.6451 H      0
   -3.6261    4.7034   -1.4079 H      0
   -3.1267    6.5113    1.6770 H      0
  1  2  1
  2  3  1
  2  4  1
  4  5  2
  5  6  1
  6  7  1
  7  8  1
  8  9  1
  8 10  1
  8 11  1
  7 12  1
 12 13  1
 12 14  1
 12 15  1
  7 16  1
 16 17  1
 16 18  1
 16 19  1
  7 20  1
 20 21  1
 21 22  1
 21 23  1
 21 24  1
 20 25  1
 25 26  1
 25 27  1
 25 28  1
 20 29  1
 29 30  1
 29 31  1
 29 32  1
  7 33  1
 33 34  1
 34 35  1
 34 36  1
 34 37  1
 33 38  1
 38 39  1
 38 40  1
 38 41  1
 33 42  1
 42 43  1
 42 44  1
 42 45  1
  6 46  1
 46 47  2
  4 47  1
 47 48  1
 48 49  1
 48 50  1
 48 51  1
 51 52  1
 51 53  1
 51 54  1
 54 55  1
 54 56  1
 54 57  1
 57 58  1
 57 59  1
 57 60  1
  2 60  1
 60 61  1
 60 62  1
 20 63  1
 33 64  1
M  END
$$$$
