
     RDKit          3D

  0  0  0  0  0  0  0  0  0  0999 V3000
M  V30 BEGIN CTAB
M  V30 COUNTS 47 52 0 0 0
M  V30 BEGIN ATOM
M  V30 1 C 1.606548 0.847294 -0.724717 0
M  V30 2 N 0.547209 1.571509 -0.862346 0
M  V30 3 C -0.269844 2.578473 -1.424354 0
M  V30 4 C -1.181137 3.243374 -0.357638 0
M  V30 5 C -2.357946 2.396537 -0.002759 0
M  V30 6 N -2.004051 1.194440 0.689147 0
M  V30 7 C -2.120289 0.034038 1.234918 0
M  V30 8 C -1.750685 -1.178198 1.957431 0
M  V30 9 C -3.197854 -0.395154 0.238738 0
M  V30 10 C -4.428973 -1.044123 0.486783 0
M  V30 11 C -5.295928 -1.384971 -0.567202 0
M  V30 12 C -4.885382 -1.057047 -1.840104 0
M  V30 13 C -3.708006 -0.429176 -2.186465 0
M  V30 14 C -2.824865 -0.080393 -1.151243 0
M  V30 15 O -1.647033 0.536793 -1.575489 0
M  V30 16 Cu -0.504891 0.824213 0.270583 0 CFG=2 VAL=4
M  V30 17 O 0.002352 -0.549417 0.584128 0
M  V30 18 C 1.265831 -0.990176 0.796095 0
M  V30 19 C 1.736584 -2.044636 1.603816 0
M  V30 20 C 3.099968 -2.265338 1.624283 0
M  V30 21 C 3.934657 -1.469694 0.875116 0
M  V30 22 C 5.292373 -1.704054 0.914207 0
M  V30 23 C 6.246438 -0.984513 0.220044 0
M  V30 24 C 5.794135 0.049034 -0.572565 0
M  V30 25 C 4.445176 0.311869 -0.635961 0
M  V30 26 C 3.530082 -0.429447 0.071014 0
M  V30 27 C 2.169064 -0.236183 0.072355 0
M  V30 28 H 2.254710 1.138431 -1.486602 0
M  V30 29 H 0.170308 3.424374 -1.976614 0
M  V30 30 H -0.975056 2.141534 -2.155064 0
M  V30 31 H -1.539060 4.174926 -0.745564 0
M  V30 32 H -0.534930 3.304955 0.550140 0
M  V30 33 H -3.081945 2.279550 -0.829458 0
M  V30 34 H -2.913306 3.020358 0.751760 0
M  V30 35 H -1.091151 -1.016373 2.845488 0
M  V30 36 H -1.413654 -2.057861 1.462000 0
M  V30 37 H -2.716070 -1.480764 2.471014 0
M  V30 38 H -4.530231 -1.234506 1.572652 0
M  V30 39 H -6.173774 -1.861198 -0.239938 0
M  V30 40 H -5.568310 -1.327259 -2.632995 0
M  V30 41 H -3.390582 -0.175574 -3.179774 0
M  V30 42 H 1.026727 -2.618313 2.153395 0
M  V30 43 H 3.394088 -3.067012 2.246187 0
M  V30 44 H 5.669815 -2.505825 1.526645 0
M  V30 45 H 7.305089 -1.236189 0.306640 0
M  V30 46 H 6.490887 0.634581 -1.128321 0
M  V30 47 H 4.122910 1.117112 -1.249406 0
M  V30 END ATOM
M  V30 BEGIN BOND
M  V30 1 2 1 2
M  V30 2 1 2 3
M  V30 3 1 3 4
M  V30 4 1 4 5
M  V30 5 1 5 6
M  V30 6 2 6 7
M  V30 7 1 7 8
M  V30 8 1 7 9
M  V30 9 2 9 10
M  V30 10 1 10 11
M  V30 11 2 11 12
M  V30 12 1 12 13
M  V30 13 2 13 14
M  V30 14 1 14 15
M  V30 15 1 15 16
M  V30 16 1 16 17
M  V30 17 1 17 18
M  V30 18 2 18 19
M  V30 19 1 19 20
M  V30 20 2 20 21
M  V30 21 1 21 22
M  V30 22 2 22 23
M  V30 23 1 23 24
M  V30 24 2 24 25
M  V30 25 1 25 26
M  V30 26 2 26 27
M  V30 27 1 27 1
M  V30 28 9 2 16
M  V30 29 1 27 18
M  V30 30 9 6 16
M  V30 31 1 26 21
M  V30 32 1 14 9
M  V30 33 1 1 28
M  V30 34 1 3 29
M  V30 35 1 3 30
M  V30 36 1 4 31
M  V30 37 1 4 32
M  V30 38 1 5 33
M  V30 39 1 5 34
M  V30 40 1 8 35
M  V30 41 1 8 36
M  V30 42 1 8 37
M  V30 43 1 10 38
M  V30 44 1 11 39
M  V30 45 1 12 40
M  V30 46 1 13 41
M  V30 47 1 19 42
M  V30 48 1 20 43
M  V30 49 1 22 44
M  V30 50 1 23 45
M  V30 51 1 24 46
M  V30 52 1 25 47
M  V30 END BOND
M  V30 END CTAB
M  END
