
 OpenBabel09252515093D

 87103  0  0  1  0  0  0  0  0999 V2000
    1.0844    0.0266    0.0465 H   0  0  0  0  0  0  0  0  0  0  0  0
    2.1544    0.0266    0.0465 C   0  0  0  0  0  3  0  0  0  0  0  0
    2.6667   -1.3563   -0.3626 C   0  0  0  0  0  3  0  0  0  0  0  0
    2.2776   -2.0937    0.3080 H   0  0  0  0  0  0  0  0  0  0  0  0
    2.2364   -1.6485   -1.6939 C   0  0  0  0  0  3  0  0  0  0  0  0
    2.5767   -2.6303   -1.9492 H   0  0  0  0  0  0  0  0  0  0  0  0
    2.7239   -0.7345   -2.6779 C   0  0  0  0  0  3  0  0  0  0  0  0
    4.5538   -0.7387   -2.6613 P   0  3  0  0  0  0  0  0  0  0  0  0
    5.1634   -2.4226   -3.0379 C   0  0  0  0  0  3  0  0  0  0  0  0
    4.0806   -2.7130   -1.9959 C   0  0  0  0  0  3  0  0  0  0  0  0
    4.0505   -1.9171   -1.2814 H   0  0  0  0  0  0  0  0  0  0  0  0
    2.8117   -2.8189   -2.6450 C   0  0  0  0  0  3  0  0  0  0  0  0
    2.0652   -2.9899   -1.8978 H   0  0  0  0  0  0  0  0  0  0  0  0
    2.7347   -3.8733   -3.6060 C   0  0  0  0  0  3  0  0  0  0  0  0
    2.9402   -4.8080   -3.1274 H   0  0  0  0  0  0  0  0  0  0  0  0
    3.7630   -3.6299   -4.7132 C   0  0  0  0  0  3  0  0  0  0  0  0
    3.7360   -4.4402   -5.4115 H   0  0  0  0  0  0  0  0  0  0  0  0
    5.1594   -3.5363   -4.0902 C   0  0  0  0  0  3  0  0  0  0  0  0
    5.4086   -4.4682   -3.6271 H   0  0  0  0  0  0  0  0  0  0  0  0
    5.4167    0.8798   -4.4039 Ru  0  0  0  0  0  0  0  0  0  0  0  0
    5.8650    0.2316   -2.8191 H   0  0  0  0  0  0  0  0  0  0  0  0
    9.7610    0.6077   -6.7819 Ru  0  0  0  0  0  0  0  0  0  0  0  0
    7.5888    0.7438   -5.5929 Cl  0  0  0  0  0  2  0  0  0  0  0  0
    8.0968    1.1341   -8.5647 C   0  0  2  0  0  0  0  0  0  0  0  0
    6.7199    1.3643   -9.1660 C   0  0  0  0  0  0  0  0  0  0  0  0
    6.8128    1.9518  -10.0555 H   0  0  0  0  0  0  0  0  0  0  0  0
    6.2735    0.4220   -9.4060 H   0  0  0  0  0  0  0  0  0  0  0  0
    6.1042    1.8812   -8.4599 H   0  0  0  0  0  0  0  0  0  0  0  0
    8.9605    1.7310   -7.4491 C   0  0  2  0  0  0  0  0  0  0  0  0
    9.9154    2.7568   -8.0376 C   0  0  0  0  0  0  0  0  0  0  0  0
   10.5459    2.2834   -8.7609 H   0  0  0  0  0  0  0  0  0  0  0  0
    9.3547    3.5366   -8.5092 H   0  0  0  0  0  0  0  0  0  0  0  0
   10.5177    3.1724   -7.2570 H   0  0  0  0  0  0  0  0  0  0  0  0
   11.5918    0.8652   -8.4512 C   0  0  2  0  0  0  0  0  0  0  0  0
   10.8401    2.0191   -9.0945 C   0  0  0  0  0  0  0  0  0  0  0  0
   10.1959    1.6420   -9.8611 H   0  0  0  0  0  0  0  0  0  0  0  0
   10.2553    2.5216   -8.3525 H   0  0  0  0  0  0  0  0  0  0  0  0
   11.5398    2.7061   -9.5226 H   0  0  0  0  0  0  0  0  0  0  0  0
   10.5977   -0.1107   -7.8431 C   0  0  2  0  0  0  0  0  0  0  0  0
   11.3497   -1.2645   -7.1999 C   0  0  0  0  0  0  0  0  0  0  0  0
   10.6502   -1.9516   -6.7716 H   0  0  0  0  0  0  0  0  0  0  0  0
   11.9344   -1.7670   -7.9420 H   0  0  0  0  0  0  0  0  0  0  0  0
   11.9940   -0.8872   -6.4335 H   0  0  0  0  0  0  0  0  0  0  0  0
    9.7371   -0.6146   -8.8668 C   0  0  2  0  0  0  0  0  0  0  0  0
    9.6617   -1.8580   -9.7378 C   0  0  0  0  0  0  0  0  0  0  0  0
   10.5507   -1.9344  -10.3282 H   0  0  0  0  0  0  0  0  0  0  0  0
    9.5710   -2.7241   -9.1160 H   0  0  0  0  0  0  0  0  0  0  0  0
    8.8102   -1.7909  -10.3823 H   0  0  0  0  0  0  0  0  0  0  0  0
    8.9983    0.3952   -9.5566 C   0  0  1  0  0  0  0  0  0  0  0  0
    8.8594    0.5037  -11.0664 C   0  0  0  0  0  0  0  0  0  0  0  0
    9.8278    0.6204  -11.5061 H   0  0  0  0  0  0  0  0  0  0  0  0
    8.3995   -0.3843  -11.4469 H   0  0  0  0  0  0  0  0  0  0  0  0
    8.2531    1.3514  -11.3088 H   0  0  0  0  0  0  0  0  0  0  0  0
    3.0727    1.0658   -3.5695 C   0  0  2  0  0  0  0  0  0  0  0  0
    1.7182    0.5717   -3.0884 C   0  0  0  0  0  0  0  0  0  0  0  0
    1.2390    1.3414   -2.5202 H   0  0  0  0  0  0  0  0  0  0  0  0
    1.1101    0.3200   -3.9321 H   0  0  0  0  0  0  0  0  0  0  0  0
    1.8520   -0.2943   -2.4742 H   0  0  0  0  0  0  0  0  0  0  0  0
    4.5402    0.9392   -3.1486 C   0  0  2  0  0  0  0  0  0  0  0  0
    4.9347    2.1428   -2.3082 C   0  0  0  0  0  0  0  0  0  0  0  0
    4.8051    3.0364   -2.8822 H   0  0  0  0  0  0  0  0  0  0  0  0
    4.3169    2.1865   -1.4357 H   0  0  0  0  0  0  0  0  0  0  0  0
    5.9598    2.0526   -2.0152 H   0  0  0  0  0  0  0  0  0  0  0  0
    5.5630    3.3656   -4.4691 C   0  0  2  0  0  0  0  0  0  0  0  0
    4.7416    3.4453   -3.1927 C   0  0  0  0  0  0  0  0  0  0  0  0
    3.7021    3.5014   -3.4403 H   0  0  0  0  0  0  0  0  0  0  0  0
    4.9201    2.5735   -2.5986 H   0  0  0  0  0  0  0  0  0  0  0  0
    5.0242    4.3172   -2.6405 H   0  0  0  0  0  0  0  0  0  0  0  0
    5.1615    2.1270   -5.2534 C   0  0  2  0  0  0  0  0  0  0  0  0
    5.9831    2.0477   -6.5298 C   0  0  0  0  0  0  0  0  0  0  0  0
    5.7009    1.1758   -7.0820 H   0  0  0  0  0  0  0  0  0  0  0  0
    5.8044    2.9195   -7.1238 H   0  0  0  0  0  0  0  0  0  0  0  0
    7.0225    1.9919   -6.2820 H   0  0  0  0  0  0  0  0  0  0  0  0
    3.7731    2.2015   -5.5843 C   0  0  2  0  0  0  0  0  0  0  0  0
    2.9418    2.6194   -6.7862 C   0  0  0  0  0  0  0  0  0  0  0  0
    3.1400    3.6451   -7.0177 H   0  0  0  0  0  0  0  0  0  0  0  0
    3.1972    2.0083   -7.6265 H   0  0  0  0  0  0  0  0  0  0  0  0
    1.9028    2.4991   -6.5604 H   0  0  0  0  0  0  0  0  0  0  0  0
    2.9086    2.3058   -4.4516 C   0  0  2  0  0  0  0  0  0  0  0  0
    1.7676    3.2995   -4.3072 C   0  0  0  0  0  0  0  0  0  0  0  0
    2.1531    4.2960   -4.3646 H   0  0  0  0  0  0  0  0  0  0  0  0
    1.0588    3.1454   -5.0939 H   0  0  0  0  0  0  0  0  0  0  0  0
    1.2876    3.1566   -3.3616 H   0  0  0  0  0  0  0  0  0  0  0  0
    2.2139    0.6737   -2.3624 C   0  0  0  0  0  3  0  0  0  0  0  0
    2.6123    1.3665   -3.0739 H   0  0  0  0  0  0  0  0  0  0  0  0
    2.6673    1.0682   -0.9533 C   0  0  0  0  0  3  0  0  0  0  0  0
    3.7361    1.1040   -0.9174 H   0  0  0  0  0  0  0  0  0  0  0  0
  1  2  1  0  0  0  0
  2  3  1  0  0  0  0
  2 86  1  0  0  0  0
  3  4  1  0  0  0  0
  3  5  1  0  0  0  0
  5  6  1  0  0  0  0
  5  7  1  0  0  0  0
  7  8  1  0  0  0  0
  7 84  1  0  0  0  0
  8  9  1  0  0  0  0
  8 20  1  0  0  0  0
  8 22  1  0  0  0  0
  9 10  1  0  0  0  0
  9 18  1  0  0  0  0
 10 11  1  0  0  0  0
 10 12  1  0  0  0  0
 12 13  1  0  0  0  0
 12 14  1  0  0  0  0
 14 15  1  0  0  0  0
 14 16  1  0  0  0  0
 16 17  1  0  0  0  0
 16 18  1  0  0  0  0
 18 19  1  0  0  0  0
 20 21  1  0  0  0  0
 20 22  1  0  0  0  0
 20 23  1  0  0  0  0
 20 54  1  0  0  0  0
 20 59  1  0  0  0  0
 20 64  1  0  0  0  0
 20 69  1  0  0  0  0
 20 74  1  0  0  0  0
 20 79  1  0  0  0  0
 21 22  1  0  0  0  0
 22 23  1  0  0  0  0
 22 24  1  0  0  0  0
 22 29  1  0  0  0  0
 22 34  1  0  0  0  0
 22 39  1  0  0  0  0
 22 44  1  0  0  0  0
 22 49  1  0  0  0  0
 24 25  1  6  0  0  0
 24 29  1  0  0  0  0
 24 49  1  0  0  0  0
 25 26  1  0  0  0  0
 25 27  1  0  0  0  0
 25 28  1  0  0  0  0
 29 30  1  6  0  0  0
 29 34  1  0  0  0  0
 30 31  1  0  0  0  0
 30 32  1  0  0  0  0
 30 33  1  0  0  0  0
 34 35  1  1  0  0  0
 34 39  1  0  0  0  0
 35 36  1  0  0  0  0
 35 37  1  0  0  0  0
 35 38  1  0  0  0  0
 39 40  1  6  0  0  0
 39 44  1  0  0  0  0
 40 41  1  0  0  0  0
 40 42  1  0  0  0  0
 40 43  1  0  0  0  0
 44 45  1  1  0  0  0
 44 49  1  0  0  0  0
 45 46  1  0  0  0  0
 45 47  1  0  0  0  0
 45 48  1  0  0  0  0
 49 50  1  1  0  0  0
 50 51  1  0  0  0  0
 50 52  1  0  0  0  0
 50 53  1  0  0  0  0
 54 55  1  6  0  0  0
 54 59  1  0  0  0  0
 54 79  1  0  0  0  0
 55 56  1  0  0  0  0
 55 57  1  0  0  0  0
 55 58  1  0  0  0  0
 59 60  1  6  0  0  0
 59 64  1  0  0  0  0
 60 61  1  0  0  0  0
 60 62  1  0  0  0  0
 60 63  1  0  0  0  0
 64 65  1  6  0  0  0
 64 69  1  0  0  0  0
 65 66  1  0  0  0  0
 65 67  1  0  0  0  0
 65 68  1  0  0  0  0
 69 70  1  1  0  0  0
 69 74  1  0  0  0  0
 70 71  1  0  0  0  0
 70 72  1  0  0  0  0
 70 73  1  0  0  0  0
 74 75  1  1  0  0  0
 74 79  1  0  0  0  0
 75 76  1  0  0  0  0
 75 77  1  0  0  0  0
 75 78  1  0  0  0  0
 79 80  1  1  0  0  0
 80 81  1  0  0  0  0
 80 82  1  0  0  0  0
 80 83  1  0  0  0  0
 84 85  1  0  0  0  0
 84 86  1  0  0  0  0
 86 87  1  0  0  0  0
M  CHG  1   8   1
M  END
$$$$
