
  --CCDC--092525    3D                              

 80 84  0  0  0  0  0  0  0  0999 V2000
    2.1308    1.5946    2.2913 Cl     0
    1.9249    2.2873   -0.0496 Ru     0
    2.8003    0.4523   -0.7066 C      0
    2.2357   -0.3182   -1.8790 C      0
    2.7861   -1.5775   -2.1563 C      0
    2.2928   -2.3737   -3.1758 C      0
    1.2377   -1.9270   -3.9403 C      0
    0.6800   -0.6866   -3.6829 C      0
    1.1600    0.1309   -2.6629 C      0
    0.5098    1.4932   -2.5022 C      0
    1.4265    2.5704   -3.0483 C      0
    0.1631    1.7976   -1.1586 N      0
   -0.7085    2.9191   -1.1467 C      0
   -0.4941    0.6863   -0.5656 C      0
    3.7698    3.5472   -1.0568 Cl     0
    1.0081    4.1233    0.5561 C      0
   -0.2333    3.8979    1.2967 N      0
   -1.3511    4.6462    0.7522 C      0
   -0.8553    5.1933   -0.5763 C      0
    0.5840    4.9908   -0.5286 N      0
    1.5127    5.6997   -1.3740 C      0
    1.1495    5.8369   -2.7183 C      0
   -0.1417    5.2798   -3.2576 C      0
    2.0232    6.4825   -3.5871 C      0
    3.2335    7.0019   -3.1624 C      0
    4.1780    7.6715   -4.1305 C      0
    3.5531    6.8768   -1.8211 C      0
    2.7116    6.2550   -0.9025 C      0
    3.1204    6.2852    0.5453 C      0
   -0.2175    3.5375    2.7019 C      0
   -1.0977    2.5397    3.1650 C      0
   -2.1388    1.8406    2.3283 C      0
   -1.0236    2.1392    4.4957 C      0
   -0.1458    2.7050    5.3997 C      0
   -0.0846    2.2380    6.8335 C      0
    0.6505    3.7377    4.9448 C      0
    0.6206    4.1878    3.6285 C      0
    1.4772    5.3874    3.3270 C      0
    3.6720    0.0636   -0.1875 H      0
    3.6205   -1.9374   -1.5562 H      0
    2.7367   -3.3485   -3.3723 H      0
    0.8438   -2.5472   -4.7441 H      0
   -0.1540   -0.3418   -4.2924 H      0
   -0.4164    1.4946   -3.0999 H      0
    1.0763    2.8988   -4.0247 H      0
    2.4394    2.1987   -3.1730 H      0
    1.4559    3.4434   -2.4014 H      0
   -1.3335    2.9296   -2.0373 H      0
   -0.1527    3.8527   -1.1102 H      0
   -1.3612    2.8958   -0.2814 H      0
    0.2073   -0.0962   -0.2850 H      0
   -1.2271    0.2598   -1.2472 H      0
   -1.0091    0.9904    0.3415 H      0
   -1.6278    5.4600    1.4208 H      0
   -2.2095    3.9936    0.5999 H      0
   -1.0939    6.2515   -0.6718 H      0
   -1.2953    4.6455   -1.4083 H      0
   -0.2605    4.2379   -2.9688 H      0
   -0.1619    5.3349   -4.3440 H      0
   -0.9932    5.8377   -2.8737 H      0
    1.7488    6.5780   -4.6325 H      0
    4.0733    7.2477   -5.1270 H      0
    5.2108    7.5419   -3.8138 H      0
    3.9739    8.7384   -4.1928 H      0
    4.4927    7.2901   -1.4694 H      0
    2.2741    6.5407    1.1795 H      0
    3.9023    7.0237    0.7100 H      0
    3.4990    5.3149    0.8597 H      0
   -2.1741    2.2289    1.3164 H      0
   -3.1264    1.9603    2.7687 H      0
   -1.9266    0.7751    2.2695 H      0
   -1.6846    1.3498    4.8381 H      0
   -1.0522    1.8607    7.1579 H      0
    0.1991    3.0552    7.4935 H      0
    0.6461    1.4402    6.9485 H      0
    1.3217    4.2237    5.6452 H      0
    2.4567    5.0877    2.9612 H      0
    1.6231    5.9872    4.2229 H      0
    1.0018    6.0151    2.5781 H      0
    1.7027    4.6699    1.1923 H      0
  1  2  1
  2  3  2
  3  4  1
  4  5  4
  5  6  4
  6  7  4
  7  8  4
  8  9  4
  4  9  4
  9 10  1
 10 11  1
 10 12  1
  2 12  1
 12 13  1
 12 14  1
  2 15  1
  2 16  1
 16 17  1
 17 18  1
 18 19  1
 19 20  1
 16 20  1
 20 21  1
 21 22  4
 22 23  1
 22 24  4
 24 25  4
 25 26  1
 25 27  4
 27 28  4
 21 28  4
 28 29  1
 17 30  1
 30 31  4
 31 32  1
 31 33  4
 33 34  4
 34 35  1
 34 36  4
 36 37  4
 30 37  4
 37 38  1
  3 39  1
  5 40  1
  6 41  1
  7 42  1
  8 43  1
 10 44  1
 11 45  1
 11 46  1
 11 47  1
 13 48  1
 13 49  1
 13 50  1
 14 51  1
 14 52  1
 14 53  1
 18 54  1
 18 55  1
 19 56  1
 19 57  1
 23 58  1
 23 59  1
 23 60  1
 24 61  1
 26 62  1
 26 63  1
 26 64  1
 27 65  1
 29 66  1
 29 67  1
 29 68  1
 32 69  1
 32 70  1
 32 71  1
 33 72  1
 35 73  1
 35 74  1
 35 75  1
 36 76  1
 38 77  1
 38 78  1
 38 79  1
 16 80  1
M  END
$$$$
