
     RDKit          3D

 44 43  0  0  0  0  0  0  0  0999 V2000
   -3.0364    0.5301    0.0495 C   0  0  0  0  0  0  0  0  0  0  0  0
   -1.5850   -0.4141    0.2878 P   0  0  0  0  0  5  0  0  0  0  0  0
   -1.8550   -1.2828   -1.2603 C   0  0  0  0  0  0  0  0  0  0  0  0
   -1.4723   -1.8500    1.2784 C   0  0  0  0  0  0  0  0  0  0  0  0
    0.0221    0.5713    0.2369 Pt  0  0  0  0  0  6  0  0  0  0  0  0
    0.2959    0.5764    2.0366 N   0  0  0  0  0  0  0  0  0  0  0  0
    0.2508    1.6119    2.6898 N   0  0  0  0  0  4  0  0  0  0  0  0
    0.6846    2.4270    3.4679 N   0  0  0  0  0  2  0  0  0  0  0  0
   -0.2005    1.0610   -1.6403 C   0  0  0  0  0  0  0  0  0  0  0  0
   -1.0649    2.1139    0.4762 C   0  0  0  0  0  0  0  0  0  0  0  0
    1.4968    1.8437    0.2632 C   0  0  0  0  0  0  0  0  0  0  0  0
    1.3295   -0.7397   -0.1731 P   0  0  0  0  0  5  0  0  0  0  0  0
    2.6005   -0.8211    1.1651 C   0  0  0  0  0  0  0  0  0  0  0  0
    1.1714   -2.2335   -0.9228 C   0  0  0  0  0  0  0  0  0  0  0  0
    2.3715    0.0054   -1.5188 C   0  0  0  0  0  0  0  0  0  0  0  0
   -3.9629   -0.1221    0.0088 H   0  0  0  0  0  0  0  0  0  0  0  0
   -3.3636    1.4660    0.5224 H   0  0  0  0  0  0  0  0  0  0  0  0
   -3.0783    0.9440   -1.0173 H   0  0  0  0  0  0  0  0  0  0  0  0
   -1.9411    0.0048    1.5063 H   0  0  0  0  0  0  0  0  0  0  0  0
   -2.9112   -1.6907   -1.3736 H   0  0  0  0  0  0  0  0  0  0  0  0
   -1.2498   -2.1430   -1.3115 H   0  0  0  0  0  0  0  0  0  0  0  0
   -1.7481   -0.5602   -2.0429 H   0  0  0  0  0  0  0  0  0  0  0  0
   -2.4426   -2.3486    1.5843 H   0  0  0  0  0  0  0  0  0  0  0  0
   -0.7825   -1.9218    2.1725 H   0  0  0  0  0  0  0  0  0  0  0  0
   -1.0351   -2.7530    0.7317 H   0  0  0  0  0  0  0  0  0  0  0  0
    0.0934    0.2046   -2.2157 H   0  0  0  0  0  0  0  0  0  0  0  0
    0.3781    1.9871   -1.8385 H   0  0  0  0  0  0  0  0  0  0  0  0
   -1.2506    1.3934   -1.7895 H   0  0  0  0  0  0  0  0  0  0  0  0
   -1.6170    1.9367    1.4484 H   0  0  0  0  0  0  0  0  0  0  0  0
   -0.5117    3.0330    0.6529 H   0  0  0  0  0  0  0  0  0  0  0  0
   -1.7331    2.3020   -0.3576 H   0  0  0  0  0  0  0  0  0  0  0  0
    1.3487    2.5110    1.1840 H   0  0  0  0  0  0  0  0  0  0  0  0
    2.4223    1.3468    0.4711 H   0  0  0  0  0  0  0  0  0  0  0  0
    1.3933    2.5561   -0.5409 H   0  0  0  0  0  0  0  0  0  0  0  0
    0.6235   -1.3822    0.6594 H   0  0  0  0  0  0  0  0  0  0  0  0
    2.9739   -1.8513    1.3381 H   0  0  0  0  0  0  0  0  0  0  0  0
    3.5558   -0.3004    0.8424 H   0  0  0  0  0  0  0  0  0  0  0  0
    2.3322   -0.2549    2.0663 H   0  0  0  0  0  0  0  0  0  0  0  0
    0.7516   -3.2286   -0.7055 H   0  0  0  0  0  0  0  0  0  0  0  0
    0.9337   -2.1269   -2.0378 H   0  0  0  0  0  0  0  0  0  0  0  0
    2.2518   -2.6386   -1.0574 H   0  0  0  0  0  0  0  0  0  0  0  0
    1.9936   -0.3467   -2.4940 H   0  0  0  0  0  0  0  0  0  0  0  0
    3.3408   -0.4563   -1.3884 H   0  0  0  0  0  0  0  0  0  0  0  0
    2.2259    1.0404   -1.4542 H   0  0  0  0  0  0  0  0  0  0  0  0
  1  2  1  0
  2  3  1  0
  2  4  1  0
  2  5  1  0
  5  6  1  0
  6  7  2  0
  7  8  2  0
  5  9  1  0
  5 10  1  0
  5 11  1  0
  5 12  1  0
 12 13  1  0
 12 14  1  0
 12 15  1  0
  1 16  1  0
  1 17  1  0
  1 18  1  0
  2 19  1  0
  3 20  1  0
  3 21  1  0
  3 22  1  0
  4 23  1  0
  4 24  1  0
  4 25  1  0
  9 26  1  0
  9 27  1  0
  9 28  1  0
 10 29  1  0
 10 30  1  0
 10 31  1  0
 11 32  1  0
 11 33  1  0
 11 34  1  0
 12 35  1  0
 13 36  1  0
 13 37  1  0
 13 38  1  0
 14 39  1  0
 14 40  1  0
 14 41  1  0
 15 42  1  0
 15 43  1  0
 15 44  1  0
M  CHG  2   7   1   8  -1
M  END
