
 OpenBabel09252518283D

 35 38  0  0  0  0  0  0  0  0999 V2000
    1.0801   -0.4485    0.1157 F   0  0  0  0  0  0  0  0  0  0  0  0
    2.4295   -0.2735    0.1456 C   0  0  0  0  0  0  0  0  0  0  0  0
    2.9093   -1.2186    1.0018 F   0  0  0  0  0  0  0  0  0  0  0  0
    2.8796   -0.6311   -1.0901 F   0  0  0  0  0  0  0  0  0  0  0  0
    2.8346    1.1318    0.5121 C   0  0  0  0  0  0  0  0  0  0  0  0
    3.7706    1.3872    1.5218 C   0  0  0  0  0  0  0  0  0  0  0  0
    4.1703    2.6958    1.7969 C   0  0  0  0  0  0  0  0  0  0  0  0
    3.6466    3.7628    1.0620 C   0  0  0  0  0  0  0  0  0  0  0  0
    2.6777    3.5302    0.0855 C   0  0  0  0  0  0  0  0  0  0  0  0
    2.2828    2.2163   -0.1872 C   0  0  0  0  0  0  0  0  0  0  0  0
    2.0593    4.6093   -0.5969 N   0  0  0  0  0  0  0  0  0  0  0  0
    3.1210    5.9163   -1.1080 C   0  0  0  0  0  0  0  0  0  0  0  0
    2.3023    7.1191   -2.0768 C   0  0  0  0  0  0  0  0  0  0  0  0
    2.3011    8.7075   -1.3053 Cl  0  0  0  0  0  0  0  0  0  0  0  0
    1.8751    7.2554   -3.4544 O   0  0  0  0  0  0  0  0  0  0  0  0
    0.8322    6.2707   -3.7784 C   0  0  0  0  0  0  0  0  0  0  0  0
    0.5034    6.1177   -5.6490 Br  0  0  0  0  0  0  0  0  0  0  0  0
   -0.5243    6.2968   -2.9820 C   0  0  0  0  0  0  0  0  0  0  0  0
   -0.1612    5.9608   -1.5284 C   0  0  0  0  0  0  0  0  0  0  0  0
    1.2133    6.2869   -1.7145 C   0  0  0  0  0  0  0  0  0  0  0  0
    1.4135    5.1526   -3.0242 C   0  0  0  0  0  0  0  0  0  0  0  0
    3.2488    4.4208   -3.9424 I   0  0  0  0  0  0  0  0  0  0  0  0
    0.4844    4.5924   -0.7659 C   0  0  0  0  0  0  0  0  0  0  0  0
   -0.2420    3.6767   -0.4000 O   0  0  0  0  0  0  0  0  0  0  0  0
    4.1902    0.5667    2.1023 H   0  0  0  0  0  0  0  0  0  0  0  0
    4.8791    2.8867    2.5997 H   0  0  0  0  0  0  0  0  0  0  0  0
    3.9481    4.7703    1.3297 H   0  0  0  0  0  0  0  0  0  0  0  0
    1.5518    2.0167   -0.9700 H   0  0  0  0  0  0  0  0  0  0  0  0
    3.4159    6.3881   -0.1607 H   0  0  0  0  0  0  0  0  0  0  0  0
    4.0149    5.4883   -1.5601 H   0  0  0  0  0  0  0  0  0  0  0  0
   -1.2492    5.5623   -3.3549 H   0  0  0  0  0  0  0  0  0  0  0  0
   -0.9708    7.2963   -3.0407 H   0  0  0  0  0  0  0  0  0  0  0  0
   -0.7149    6.5570   -0.7961 H   0  0  0  0  0  0  0  0  0  0  0  0
    1.3090    6.4593   -0.6111 H   0  0  0  0  0  0  0  0  0  0  0  0
    0.7466    4.2766   -3.0177 H   0  0  0  0  0  0  0  0  0  0  0  0
  1  2  1  0  0  0  0
  2  3  1  0  0  0  0
  2  4  1  0  0  0  0
  2  5  1  0  0  0  0
  5  6  1  0  0  0  0
  5 10  2  0  0  0  0
  6  7  2  0  0  0  0
  6 25  1  0  0  0  0
  7  8  1  0  0  0  0
  7 26  1  0  0  0  0
  8  9  2  0  0  0  0
  8 27  1  0  0  0  0
  9 10  1  0  0  0  0
  9 11  1  0  0  0  0
 10 28  1  0  0  0  0
 11 12  1  0  0  0  0
 11 23  1  0  0  0  0
 12 13  1  0  0  0  0
 12 29  1  0  0  0  0
 12 30  1  0  0  0  0
 13 14  1  0  0  0  0
 13 15  1  0  0  0  0
 13 20  1  0  0  0  0
 15 16  1  0  0  0  0
 16 17  1  0  0  0  0
 16 18  1  0  0  0  0
 16 21  1  0  0  0  0
 18 19  1  0  0  0  0
 18 31  1  0  0  0  0
 18 32  1  0  0  0  0
 19 20  1  0  0  0  0
 19 23  1  0  0  0  0
 19 33  1  0  0  0  0
 20 21  1  0  0  0  0
 20 34  1  0  0  0  0
 21 22  1  0  0  0  0
 21 35  1  0  0  0  0
 23 24  2  0  0  0  0
M  END
$$$$
