
 OpenBabel09252518523D

 57 60  0  0  0  0  0  0  0  0999 V2000
    1.3279    0.0972    1.3878 H   0  0  0  0  0  0  0  0  0  0  0  0
    1.8522    0.0837    0.4394 C   0  0  0  0  0  3  0  0  0  0  0  0
    1.8742   -1.1378   -0.3502 C   0  0  0  0  0  3  0  0  0  0  0  0
    1.4305   -2.0389    0.0580 H   0  0  0  0  0  0  0  0  0  0  0  0
    2.7696   -1.2466   -1.4943 C   0  0  0  0  0  3  0  0  0  0  0  0
    2.9723   -2.2309   -1.9012 H   0  0  0  0  0  0  0  0  0  0  0  0
    3.6503   -0.1345   -1.8578 C   0  0  0  0  0  3  0  0  0  0  0  0
    4.6995   -0.4411   -2.7490 N   0  0  0  0  0  0  0  0  0  0  0  0
    4.7738   -0.1269   -4.1648 C   0  0  0  0  0  0  0  0  0  0  0  0
    4.1545    0.9824   -4.6268 C   0  0  0  0  0  0  0  0  0  0  0  0
    4.9028    1.8783   -5.4642 C   0  0  0  0  0  0  0  0  0  0  0  0
    5.5640    2.6439   -6.2868 C   0  0  0  0  0  0  0  0  0  0  0  0
    6.3347    3.5365   -7.2458 C   0  0  0  0  0  3  0  0  0  0  0  0
    5.6327    3.6496   -8.5445 C   0  0  0  0  0  3  0  0  0  0  0  0
    5.4005    2.7445   -9.0933 H   0  0  0  0  0  0  0  0  0  0  0  0
    4.8836    4.8716   -8.8377 C   0  0  0  0  0  3  0  0  0  0  0  0
    4.1156    4.8598   -9.6018 H   0  0  0  0  0  0  0  0  0  0  0  0
    4.9938    6.0197   -7.9455 C   0  0  0  0  0  3  0  0  0  0  0  0
    4.3302    6.8676   -8.0616 H   0  0  0  0  0  0  0  0  0  0  0  0
    5.9695    6.0032   -6.8636 C   0  0  0  0  0  3  0  0  0  0  0  0
    6.1730    6.8988   -6.2916 H   0  0  0  0  0  0  0  0  0  0  0  0
    6.7976    4.8156   -6.6714 C   0  0  0  0  0  3  0  0  0  0  0  0
    8.1355    5.1054   -6.5154 O   0  0  0  0  0  0  0  0  0  0  0  0
    9.0587    4.1652   -7.0521 C   0  0  0  0  0  0  0  0  0  0  0  0
    9.1084    3.2748   -6.4193 H   0  0  0  0  0  0  0  0  0  0  0  0
    8.8189    3.8985   -8.0878 H   0  0  0  0  0  0  0  0  0  0  0  0
   10.0462    4.6371   -7.0629 H   0  0  0  0  0  0  0  0  0  0  0  0
    2.2814    1.1872   -4.8736 Si  0  0  0  0  0  0  0  0  0  0  0  0
    1.5225   -0.5000   -5.2611 C   0  0  0  0  0  0  0  0  0  0  0  0
    1.6855   -1.2032   -4.4407 H   0  0  0  0  0  0  0  0  0  0  0  0
    0.4447   -0.4013   -5.4224 H   0  0  0  0  0  0  0  0  0  0  0  0
    1.9672   -0.9165   -6.1702 H   0  0  0  0  0  0  0  0  0  0  0  0
    1.3670    1.9302   -3.4218 C   0  0  0  0  0  0  0  0  0  0  0  0
    1.9266    2.7588   -2.9799 H   0  0  0  0  0  0  0  0  0  0  0  0
    0.3975    2.3200   -3.7498 H   0  0  0  0  0  0  0  0  0  0  0  0
    1.1630    1.1833   -2.6523 H   0  0  0  0  0  0  0  0  0  0  0  0
    1.9355    2.3163   -6.3658 C   0  0  0  0  0  0  0  0  0  0  0  0
    2.3135    3.3260   -6.1796 H   0  0  0  0  0  0  0  0  0  0  0  0
    2.4092    1.9208   -7.2690 H   0  0  0  0  0  0  0  0  0  0  0  0
    0.8576    2.3813   -6.5428 H   0  0  0  0  0  0  0  0  0  0  0  0
    6.0925   -0.5365   -4.6707 C   0  0  0  0  0  3  0  0  0  0  0  0
    6.4710   -0.9287   -6.0273 C   0  0  0  0  0  3  0  0  0  0  0  0
    5.7097   -1.1825   -6.7552 H   0  0  0  0  0  0  0  0  0  0  0  0
    7.8841   -1.0784   -6.3533 C   0  0  0  0  0  3  0  0  0  0  0  0
    8.1756   -1.4326   -7.3349 H   0  0  0  0  0  0  0  0  0  0  0  0
    8.9048   -0.7755   -5.3508 C   0  0  0  0  0  3  0  0  0  0  0  0
    9.9038   -0.5142   -5.6798 H   0  0  0  0  0  0  0  0  0  0  0  0
    8.5179   -0.5579   -3.9558 C   0  0  0  0  0  3  0  0  0  0  0  0
    9.2027   -0.0708   -3.2718 H   0  0  0  0  0  0  0  0  0  0  0  0
    7.1075   -0.6170   -3.6342 C   0  0  0  0  0  3  0  0  0  0  0  0
    6.3257   -0.3835   -2.1131 S   0  0  0  0  0  0  0  0  0  0  0  0
    6.6201    0.9585   -1.6406 O   0  0  0  0  0  0  0  0  0  0  0  0
    6.5300   -1.5411   -1.2700 O   0  0  0  0  0  0  0  0  0  0  0  0
    3.6323    1.0789   -1.0465 C   0  0  0  0  0  3  0  0  0  0  0  0
    4.2775    1.9143   -1.2885 H   0  0  0  0  0  0  0  0  0  0  0  0
    2.7207    1.1945    0.0838 C   0  0  0  0  0  3  0  0  0  0  0  0
    2.7619    2.0715    0.7181 H   0  0  0  0  0  0  0  0  0  0  0  0
  1  2  1  0  0  0  0
  2  3  1  0  0  0  0
  2 56  1  0  0  0  0
  3  4  1  0  0  0  0
  3  5  1  0  0  0  0
  5  6  1  0  0  0  0
  5  7  1  0  0  0  0
  7  8  1  0  0  0  0
  7 54  1  0  0  0  0
  8  9  1  0  0  0  0
  8 51  1  0  0  0  0
  9 10  2  0  0  0  0
  9 41  1  0  0  0  0
 10 11  1  0  0  0  0
 10 28  1  0  0  0  0
 11 12  3  0  0  0  0
 12 13  1  0  0  0  0
 13 14  1  0  0  0  0
 13 22  1  0  0  0  0
 14 15  1  0  0  0  0
 14 16  1  0  0  0  0
 16 17  1  0  0  0  0
 16 18  1  0  0  0  0
 18 19  1  0  0  0  0
 18 20  1  0  0  0  0
 20 21  1  0  0  0  0
 20 22  1  0  0  0  0
 22 23  1  0  0  0  0
 23 24  1  0  0  0  0
 24 25  1  0  0  0  0
 24 26  1  0  0  0  0
 24 27  1  0  0  0  0
 28 29  1  0  0  0  0
 28 33  1  0  0  0  0
 28 37  1  0  0  0  0
 29 30  1  0  0  0  0
 29 31  1  0  0  0  0
 29 32  1  0  0  0  0
 33 34  1  0  0  0  0
 33 35  1  0  0  0  0
 33 36  1  0  0  0  0
 37 38  1  0  0  0  0
 37 39  1  0  0  0  0
 37 40  1  0  0  0  0
 41 42  1  0  0  0  0
 41 50  1  0  0  0  0
 42 43  1  0  0  0  0
 42 44  1  0  0  0  0
 44 45  1  0  0  0  0
 44 46  1  0  0  0  0
 46 47  1  0  0  0  0
 46 48  1  0  0  0  0
 48 49  1  0  0  0  0
 48 50  1  0  0  0  0
 50 51  1  0  0  0  0
 51 52  2  0  0  0  0
 51 53  2  0  0  0  0
 54 55  1  0  0  0  0
 54 56  1  0  0  0  0
 56 57  1  0  0  0  0
M  END
$$$$
