
 OpenBabel09252513293D

 53 57  0  0  0  0  0  0  0  0999 V2000
    0.9048   -0.0289    0.0096 I   0  0  0  0  0  0  0  0  0  0  0  0
    3.6148   -0.0289    0.0096 Cu  0  0  0  0  0  0  0  0  0  0  0  0
    4.3083    1.1739    0.0101 S   0  0  0  0  0  3  0  0  0  0  0  0
    5.5753    1.2232    0.3556 P   0  0  0  0  0  0  0  0  0  0  0  0
    6.3335   -0.0067    0.7637 C   0  0  0  0  0  0  0  0  0  0  0  0
    5.5972   -1.2506    0.3595 P   0  0  0  0  0  0  0  0  0  0  0  0
    4.2972   -1.2125    0.0091 S   0  0  0  0  0  3  0  0  0  0  0  0
    5.9244    0.2083   -0.6956 C   0  0  0  0  0  0  0  0  0  0  0  0
    6.7289    0.1671   -1.8225 C   0  0  0  0  0  0  0  0  0  0  0  0
    6.9822    1.4370   -2.3927 C   0  0  0  0  0  0  0  0  0  0  0  0
    6.2716    2.5230   -2.1484 C   0  0  0  0  0  0  0  0  0  0  0  0
    5.4448    2.4767   -1.0604 C   0  0  0  0  0  0  0  0  0  0  0  0
    5.2472    1.3038   -0.3725 C   0  0  0  0  0  0  0  0  0  0  0  0
    5.1308   -1.0243    2.1146 C   0  0  0  0  0  0  0  0  0  0  0  0
    5.6290    0.0624    2.8141 C   0  0  0  0  0  0  0  0  0  0  0  0
    5.4766   -0.0401    4.2171 C   0  0  0  0  0  0  0  0  0  0  0  0
    4.6439   -0.8680    4.8215 C   0  0  0  0  0  0  0  0  0  0  0  0
    4.1326   -1.8808    4.0585 C   0  0  0  0  0  0  0  0  0  0  0  0
    4.3470   -1.9210    2.7019 C   0  0  0  0  0  0  0  0  0  0  0  0
    5.9312    0.8593   -1.4022 C   0  0  0  0  0  0  0  0  0  0  0  0
    6.7007    1.7601   -2.1198 C   0  0  0  0  0  0  0  0  0  0  0  0
    6.7382    1.5016   -3.5105 C   0  0  0  0  0  0  0  0  0  0  0  0
    6.4064    0.3512   -4.0677 C   0  0  0  0  0  0  0  0  0  0  0  0
    5.7059   -0.5240   -3.2849 C   0  0  0  0  0  0  0  0  0  0  0  0
    5.5151   -0.2782   -1.9465 C   0  0  0  0  0  0  0  0  0  0  0  0
    4.0647    0.5527    1.1412 C   0  0  0  0  0  0  0  0  0  0  0  0
    2.9182    0.3544    0.3896 C   0  0  0  0  0  0  0  0  0  0  0  0
    1.7536    0.1441    1.1650 C   0  0  0  0  0  0  0  0  0  0  0  0
    1.7547   -0.1992    2.4403 C   0  0  0  0  0  0  0  0  0  0  0  0
    2.9362   -0.0440    3.1107 C   0  0  0  0  0  0  0  0  0  0  0  0
    4.0897    0.2880    2.4422 C   0  0  0  0  0  0  0  0  0  0  0  0
    6.4401   -0.0041    1.8284 H   0  0  0  0  0  0  0  0  0  0  0  0
    7.2935    0.0010    0.2911 H   0  0  0  0  0  0  0  0  0  0  0  0
    7.1231   -0.7425   -2.2251 H   0  0  0  0  0  0  0  0  0  0  0  0
    7.8069    1.5235   -3.0689 H   0  0  0  0  0  0  0  0  0  0  0  0
    6.3393    3.3924   -2.7685 H   0  0  0  0  0  0  0  0  0  0  0  0
    4.9444    3.3666   -0.7401 H   0  0  0  0  0  0  0  0  0  0  0  0
    4.5411    1.2729    0.4309 H   0  0  0  0  0  0  0  0  0  0  0  0
    6.0876    0.9031    2.3368 H   0  0  0  0  0  0  0  0  0  0  0  0
    6.0779    0.5974    4.8310 H   0  0  0  0  0  0  0  0  0  0  0  0
    4.3834   -0.7523    5.8528 H   0  0  0  0  0  0  0  0  0  0  0  0
    3.5571   -2.6532    4.5245 H   0  0  0  0  0  0  0  0  0  0  0  0
    3.8781   -2.6817    2.1134 H   0  0  0  0  0  0  0  0  0  0  0  0
    7.2197    2.5772   -1.6639 H   0  0  0  0  0  0  0  0  0  0  0  0
    7.0577    2.2933   -4.1555 H   0  0  0  0  0  0  0  0  0  0  0  0
    6.6714    0.1167   -5.0774 H   0  0  0  0  0  0  0  0  0  0  0  0
    5.3004   -1.4131   -3.7207 H   0  0  0  0  0  0  0  0  0  0  0  0
    5.0270   -1.0100   -1.3374 H   0  0  0  0  0  0  0  0  0  0  0  0
    2.9138    0.3597   -0.6804 H   0  0  0  0  0  0  0  0  0  0  0  0
    0.8060    0.2721    0.6849 H   0  0  0  0  0  0  0  0  0  0  0  0
    0.8782   -0.5785    2.9228 H   0  0  0  0  0  0  0  0  0  0  0  0
    2.9628   -0.1831    4.1713 H   0  0  0  0  0  0  0  0  0  0  0  0
    5.0167    0.3336    2.9747 H   0  0  0  0  0  0  0  0  0  0  0  0
  1  2  1  0  0  0  0
  2  3  1  0  0  0  0
  2  7  1  0  0  0  0
  3  4  2  0  0  0  0
  4  5  1  0  0  0  0
  4 20  1  0  0  0  0
  4 26  1  0  0  0  0
  5  6  1  0  0  0  0
  5 32  1  0  0  0  0
  5 33  1  0  0  0  0
  6  7  2  0  0  0  0
  6  8  1  0  0  0  0
  6 14  1  0  0  0  0
  8  9  1  0  0  0  0
  8 13  2  0  0  0  0
  9 10  2  0  0  0  0
  9 34  1  0  0  0  0
 10 11  1  0  0  0  0
 10 35  1  0  0  0  0
 11 12  2  0  0  0  0
 11 36  1  0  0  0  0
 12 13  1  0  0  0  0
 12 37  1  0  0  0  0
 13 38  1  0  0  0  0
 14 15  1  0  0  0  0
 14 19  2  0  0  0  0
 15 16  2  0  0  0  0
 15 39  1  0  0  0  0
 16 17  1  0  0  0  0
 16 40  1  0  0  0  0
 17 18  2  0  0  0  0
 17 41  1  0  0  0  0
 18 19  1  0  0  0  0
 18 42  1  0  0  0  0
 19 43  1  0  0  0  0
 20 21  1  0  0  0  0
 20 25  2  0  0  0  0
 21 22  2  0  0  0  0
 21 44  1  0  0  0  0
 22 23  1  0  0  0  0
 22 45  1  0  0  0  0
 23 24  2  0  0  0  0
 23 46  1  0  0  0  0
 24 25  1  0  0  0  0
 24 47  1  0  0  0  0
 25 48  1  0  0  0  0
 26 27  1  0  0  0  0
 26 31  2  0  0  0  0
 27 28  2  0  0  0  0
 27 49  1  0  0  0  0
 28 29  1  0  0  0  0
 28 50  1  0  0  0  0
 29 30  2  0  0  0  0
 29 51  1  0  0  0  0
 30 31  1  0  0  0  0
 30 52  1  0  0  0  0
 31 53  1  0  0  0  0
M  END
$$$$
