
 OpenBabel09252519323D

 43 45  0  0  1  0  0  0  0  0999 V2000
    1.0765    0.0205    0.0611 H   0  0  0  0  0  0  0  0  0  0  0  0
    2.1465    0.0205    0.0611 C   0  0  0  0  0  3  0  0  0  0  0  0
    2.6587   -1.3624   -0.3481 C   0  0  0  0  0  3  0  0  0  0  0  0
    2.2696   -2.0998    0.3226 H   0  0  0  0  0  0  0  0  0  0  0  0
    2.2285   -1.6546   -1.6793 C   0  0  0  0  0  3  0  0  0  0  0  0
    2.5688   -2.6364   -1.9346 H   0  0  0  0  0  0  0  0  0  0  0  0
    2.7159   -0.7406   -2.6633 C   0  0  0  0  0  3  0  0  0  0  0  0
    4.2359   -0.7441   -2.6496 C   0  0  1  0  0  0  0  0  0  0  0  0
    4.5845   -0.4465   -1.6827 H   0  0  0  0  0  0  0  0  0  0  0  0
    4.7422   -2.1427   -2.9623 C   0  0  0  0  0  0  0  0  0  0  0  0
    4.3935   -2.4403   -3.9292 H   0  0  0  0  0  0  0  0  0  0  0  0
    5.8121   -2.1452   -2.9527 H   0  0  0  0  0  0  0  0  0  0  0  0
    4.3772   -2.8273   -2.2254 H   0  0  0  0  0  0  0  0  0  0  0  0
    4.7372    0.1963   -3.6621 N   0  0  0  0  0  4  0  0  0  0  0  0
    4.4049   -0.0873   -4.5837 H   0  0  0  0  0  0  0  0  0  0  0  0
    4.3975    1.1349   -3.4522 H   0  0  0  0  0  0  0  0  0  0  0  0
    6.8071    0.1915   -3.6433 Pt  0  0  0  0  0  0  0  0  0  0  0  0
    6.7997   -1.8570   -3.3459 N   0  0  0  0  0  0  0  0  0  0  0  0
    5.6580   -2.5053   -3.2617 C   0  0  0  0  0  0  0  0  0  0  0  0
    4.5551   -3.1316   -3.1804 O   0  0  0  0  0  0  0  0  0  0  0  0
    8.9270    0.1866   -3.6241 C   0  0  0  0  0  3  0  0  0  0  0  0
    9.4429   -1.0595   -4.3475 C   0  0  0  0  0  3  0  0  0  0  0  0
    9.0476   -1.9350   -3.8761 H   0  0  0  0  0  0  0  0  0  0  0  0
    9.0247   -1.0239   -5.7137 C   0  0  0  0  0  3  0  0  0  0  0  0
    9.3672   -1.9169   -6.1934 H   0  0  0  0  0  0  0  0  0  0  0  0
    9.5211    0.0978   -6.4463 C   0  0  0  0  0  3  0  0  0  0  0  0
   10.5909    0.0907   -6.4281 H   0  0  0  0  0  0  0  0  0  0  0  0
    9.0084    1.3908   -5.8078 C   0  0  0  0  0  3  0  0  0  0  0  0
    9.4132    2.2328   -6.3294 H   0  0  0  0  0  0  0  0  0  0  0  0
    9.4490    1.4360   -4.3413 C   0  0  0  0  0  3  0  0  0  0  0  0
   10.9668    1.4698   -4.2662 C   0  0  1  0  0  0  0  0  0  0  0  0
   11.2725    1.5013   -3.2413 H   0  0  0  0  0  0  0  0  0  0  0  0
   11.4824    2.7047   -4.9870 C   0  0  0  0  0  0  0  0  0  0  0  0
   12.5069    2.5583   -4.7152 H   0  0  0  0  0  0  0  0  0  0  0  0
   11.3856    2.6581   -6.0516 H   0  0  0  0  0  0  0  0  0  0  0  0
   11.1549    3.6626   -4.6407 H   0  0  0  0  0  0  0  0  0  0  0  0
    6.8146    2.2401   -3.9407 N   0  0  0  0  0  4  0  0  0  0  0  0
    6.3347    2.6979   -3.1658 H   0  0  0  0  0  0  0  0  0  0  0  0
    7.7775    2.5732   -3.9887 H   0  0  0  0  0  0  0  0  0  0  0  0
    2.2060    0.6676   -2.3478 C   0  0  0  0  0  3  0  0  0  0  0  0
    2.6043    1.3604   -3.0593 H   0  0  0  0  0  0  0  0  0  0  0  0
    2.6593    1.0621   -0.9388 C   0  0  0  0  0  3  0  0  0  0  0  0
    3.7281    1.0980   -0.9028 H   0  0  0  0  0  0  0  0  0  0  0  0
  1  2  1  0  0  0  0
  2  3  1  0  0  0  0
  2 42  1  0  0  0  0
  3  4  1  0  0  0  0
  3  5  1  0  0  0  0
  5  6  1  0  0  0  0
  5  7  1  0  0  0  0
  7  8  1  0  0  0  0
  7 40  1  0  0  0  0
  8  9  1  1  0  0  0
  8 10  1  0  0  0  0
  8 14  1  0  0  0  0
 10 11  1  0  0  0  0
 10 12  1  0  0  0  0
 10 13  1  0  0  0  0
 14 15  1  0  0  0  0
 14 16  1  0  0  0  0
 14 17  1  0  0  0  0
 17 18  1  0  0  0  0
 17 21  1  0  0  0  0
 17 37  1  0  0  0  0
 18 19  2  0  0  0  0
 19 20  2  0  0  0  0
 21 22  1  0  0  0  0
 21 30  1  0  0  0  0
 22 23  1  0  0  0  0
 22 24  1  0  0  0  0
 24 25  1  0  0  0  0
 24 26  1  0  0  0  0
 26 27  1  0  0  0  0
 26 28  1  0  0  0  0
 28 29  1  0  0  0  0
 28 30  1  0  0  0  0
 30 31  1  0  0  0  0
 31 37  1  0  0  0  0
 31 33  1  0  0  0  0
 31 32  1  1  0  0  0
 33 34  1  0  0  0  0
 33 35  1  0  0  0  0
 33 36  1  0  0  0  0
 37 38  1  0  0  0  0
 37 39  1  0  0  0  0
 40 41  1  0  0  0  0
 40 42  1  0  0  0  0
 42 43  1  0  0  0  0
M  END
$$$$
