
  --CCDC--092525    3D                              

 44 43  0  0  0  0  0  0  0  0999 V2000
   -0.7406    0.1286   -0.4577 H      0
    0.0617    0.8344   -0.2604 C      0
    0.3814    1.2428   -1.2168 H      0
    0.9084    0.2783    0.1357 H      0
   -0.4663    2.1910    0.8349 P      0
   -1.2005    2.6498   -0.7698 C      0
   -1.5086    1.7658   -1.3256 H      0
   -0.4395    3.1371   -1.3758 H      0
   -2.0491    3.3191   -0.7471 H      0
    0.3068    3.8114    1.1233 C      0
    0.9191    4.0737    0.2631 H      0
    0.9706    3.7918    1.9850 H      0
   -0.3979    4.6221    1.2620 H      0
   -1.4524    1.6442    2.0572 O      0
   -2.2135    1.6537    0.9648 N      0
   -2.8755    0.7181    0.4178 N      3
   -3.5472   -0.1322    0.0529 N      5
   -2.4475    0.8308    2.7163 C      0
   -2.4823   -0.2332    2.4865 H      0
   -3.4550    1.0881    2.4479 H      0
   -2.3974    0.8659    3.7976 H      0
   -0.7710    0.3657    2.1180 C      0
   -1.1152   -0.3823    1.4029 H      0
    0.3008    0.3584    1.9745 H      0
   -0.8304   -0.0866    3.1088 H      0
   -0.4678    2.0035    3.0526 C      0
   -0.6274    1.5261    4.0165 H      0
   -0.3612    3.0552    3.2494 H      0
    0.5638    1.7656    2.8331 H      0
   -2.3158    2.9526    2.6497 P      0
   -2.9934    3.9919    1.3303 C      0
   -3.6442    3.4495    0.6470 H      0
   -2.2240    4.4960    0.7583 H      0
   -3.6015    4.7753    1.7779 H      0
   -4.0993    2.8244    2.9935 C      0
   -4.3260    2.1437    3.8135 H      0
   -4.6647    2.5291    2.1105 H      0
   -4.4746    3.8008    3.2927 H      0
   -2.2492    3.2464    4.4537 C      0
   -3.1072    3.8474    4.7476 H      0
   -1.3674    3.7928    4.7824 H      0
   -2.3025    2.3214    5.0218 H      0
    0.8892    1.9023    1.0364 H      0
   -1.6106    4.1603    2.6913 H      0
  1  2  1
  2  3  1
  2  4  1
  2  5  1
  5  6  1
  6  7  1
  6  8  1
  6  9  1
  5 10  1
 10 11  1
 10 12  1
 10 13  1
  5 14  1
 14 15  1
 15 16  2
 16 17  2
 14 18  1
 18 19  1
 18 20  1
 18 21  1
 14 22  1
 22 23  1
 22 24  1
 22 25  1
 14 26  1
 26 27  1
 26 28  1
 26 29  1
 14 30  1
 30 31  1
 31 32  1
 31 33  1
 31 34  1
 30 35  1
 35 36  1
 35 37  1
 35 38  1
 30 39  1
 39 40  1
 39 41  1
 39 42  1
  5 43  1
 30 44  1
M  CHG  2  16   1  17  -1
M  END
$$$$
