
 OpenBabel09252516513D

 57 60  0  0  0  0  0  0  0  0999 V2000
    1.2859   -0.0348    1.3461 H   0  0  0  0  0  0  0  0  0  0  0  0
    1.8579   -0.0533    0.4260 C   0  0  0  0  0  3  0  0  0  0  0  0
    1.9025   -1.2707   -0.3689 C   0  0  0  0  0  3  0  0  0  0  0  0
    1.4392   -2.1723    0.0154 H   0  0  0  0  0  0  0  0  0  0  0  0
    2.8238   -1.3697   -1.4929 C   0  0  0  0  0  3  0  0  0  0  0  0
    3.0301   -2.3484   -1.9113 H   0  0  0  0  0  0  0  0  0  0  0  0
    3.7097   -0.2529   -1.8252 C   0  0  0  0  0  3  0  0  0  0  0  0
    4.7525   -0.5283   -2.7309 N   0  0  0  0  0  0  0  0  0  0  0  0
    4.7690   -0.2472   -4.1539 C   0  0  0  0  0  0  0  0  0  0  0  0
    4.1407    0.8688   -4.5933 C   0  0  0  0  0  0  0  0  0  0  0  0
    4.9115    1.7613   -5.5523 C   0  0  0  0  0  0  0  0  0  0  0  0
    5.5726    2.5269   -6.3749 C   0  0  0  0  0  0  0  0  0  0  0  0
    6.3434    3.4194   -7.3339 C   0  0  0  0  0  3  0  0  0  0  0  0
    5.6378    3.5355   -8.6307 C   0  0  0  0  0  3  0  0  0  0  0  0
    5.4131    2.6326   -9.1861 H   0  0  0  0  0  0  0  0  0  0  0  0
    4.8800    4.7543   -8.9148 C   0  0  0  0  0  3  0  0  0  0  0  0
    4.1170    4.7458   -9.6837 H   0  0  0  0  0  0  0  0  0  0  0  0
    4.9838    5.8974   -8.0153 C   0  0  0  0  0  3  0  0  0  0  0  0
    4.3256    6.7489   -8.1351 H   0  0  0  0  0  0  0  0  0  0  0  0
    5.9597    5.8794   -6.9336 C   0  0  0  0  0  3  0  0  0  0  0  0
    6.1608    6.7737   -6.3585 H   0  0  0  0  0  0  0  0  0  0  0  0
    6.8039    4.6998   -6.7580 C   0  0  0  0  0  3  0  0  0  0  0  0
    8.1419    5.0090   -6.6426 O   0  0  0  0  0  0  0  0  0  0  0  0
    9.0677    4.0650   -7.1669 C   0  0  0  0  0  0  0  0  0  0  0  0
    9.1438    3.1979   -6.5051 H   0  0  0  0  0  0  0  0  0  0  0  0
    8.8123    3.7594   -8.1878 H   0  0  0  0  0  0  0  0  0  0  0  0
   10.0473    4.5512   -7.2141 H   0  0  0  0  0  0  0  0  0  0  0  0
    2.2674    1.0440   -4.8583 Si  0  0  0  0  0  0  0  0  0  0  0  0
    1.5525   -0.6605   -5.2600 C   0  0  0  0  0  0  0  0  0  0  0  0
    1.7266   -1.3627   -4.4409 H   0  0  0  0  0  0  0  0  0  0  0  0
    0.4743   -0.5878   -5.4304 H   0  0  0  0  0  0  0  0  0  0  0  0
    2.0164   -1.0617   -6.1665 H   0  0  0  0  0  0  0  0  0  0  0  0
    1.3384    1.7498   -3.3991 C   0  0  0  0  0  0  0  0  0  0  0  0
    1.8746    2.5936   -2.9566 H   0  0  0  0  0  0  0  0  0  0  0  0
    0.3549    2.1098   -3.7190 H   0  0  0  0  0  0  0  0  0  0  0  0
    1.1654    0.9939   -2.6310 H   0  0  0  0  0  0  0  0  0  0  0  0
    1.9132    2.1688   -6.3460 C   0  0  0  0  0  0  0  0  0  0  0  0
    2.2823    3.1818   -6.1598 H   0  0  0  0  0  0  0  0  0  0  0  0
    2.3910    1.7791   -7.2497 H   0  0  0  0  0  0  0  0  0  0  0  0
    0.8353    2.2248   -6.5256 H   0  0  0  0  0  0  0  0  0  0  0  0
    6.0781   -0.6497   -4.6922 C   0  0  0  0  0  3  0  0  0  0  0  0
    6.4251   -1.0664   -6.0499 C   0  0  0  0  0  3  0  0  0  0  0  0
    5.6500   -1.3673   -6.7445 H   0  0  0  0  0  0  0  0  0  0  0  0
    7.8316   -1.1756   -6.4197 C   0  0  0  0  0  3  0  0  0  0  0  0
    8.1037   -1.5432   -7.4020 H   0  0  0  0  0  0  0  0  0  0  0  0
    8.8734   -0.8104   -5.4605 C   0  0  0  0  0  3  0  0  0  0  0  0
    9.8476   -0.5123   -5.8309 H   0  0  0  0  0  0  0  0  0  0  0  0
    8.5259   -0.5765   -4.0576 C   0  0  0  0  0  3  0  0  0  0  0  0
    9.2158   -0.0508   -3.4082 H   0  0  0  0  0  0  0  0  0  0  0  0
    7.1292   -0.6745   -3.6876 C   0  0  0  0  0  3  0  0  0  0  0  0
    6.3896   -0.4310   -2.1460 S   0  0  0  0  0  0  0  0  0  0  0  0
    6.6704    0.9239   -1.7015 O   0  0  0  0  0  0  0  0  0  0  0  0
    6.6423   -1.5712   -1.2936 O   0  0  0  0  0  0  0  0  0  0  0  0
    3.6755    0.9527   -1.0055 C   0  0  0  0  0  3  0  0  0  0  0  0
    4.3065    1.7997   -1.2446 H   0  0  0  0  0  0  0  0  0  0  0  0
    2.7370    1.0592    0.1029 C   0  0  0  0  0  3  0  0  0  0  0  0
    2.7412    1.9445    0.7264 H   0  0  0  0  0  0  0  0  0  0  0  0
  1  2  1  0  0  0  0
  2  3  1  0  0  0  0
  2 56  1  0  0  0  0
  3  4  1  0  0  0  0
  3  5  1  0  0  0  0
  5  6  1  0  0  0  0
  5  7  1  0  0  0  0
  7  8  1  0  0  0  0
  7 54  1  0  0  0  0
  8  9  1  0  0  0  0
  8 51  1  0  0  0  0
  9 10  2  0  0  0  0
  9 41  1  0  0  0  0
 10 11  1  0  0  0  0
 10 28  1  0  0  0  0
 11 12  3  0  0  0  0
 12 13  1  0  0  0  0
 13 14  1  0  0  0  0
 13 22  1  0  0  0  0
 14 15  1  0  0  0  0
 14 16  1  0  0  0  0
 16 17  1  0  0  0  0
 16 18  1  0  0  0  0
 18 19  1  0  0  0  0
 18 20  1  0  0  0  0
 20 21  1  0  0  0  0
 20 22  1  0  0  0  0
 22 23  1  0  0  0  0
 23 24  1  0  0  0  0
 24 25  1  0  0  0  0
 24 26  1  0  0  0  0
 24 27  1  0  0  0  0
 28 29  1  0  0  0  0
 28 33  1  0  0  0  0
 28 37  1  0  0  0  0
 29 30  1  0  0  0  0
 29 31  1  0  0  0  0
 29 32  1  0  0  0  0
 33 34  1  0  0  0  0
 33 35  1  0  0  0  0
 33 36  1  0  0  0  0
 37 38  1  0  0  0  0
 37 39  1  0  0  0  0
 37 40  1  0  0  0  0
 41 42  1  0  0  0  0
 41 50  1  0  0  0  0
 42 43  1  0  0  0  0
 42 44  1  0  0  0  0
 44 45  1  0  0  0  0
 44 46  1  0  0  0  0
 46 47  1  0  0  0  0
 46 48  1  0  0  0  0
 48 49  1  0  0  0  0
 48 50  1  0  0  0  0
 50 51  1  0  0  0  0
 51 52  2  0  0  0  0
 51 53  2  0  0  0  0
 54 55  1  0  0  0  0
 54 56  1  0  0  0  0
 56 57  1  0  0  0  0
M  END
$$$$
