
     RDKit          3D

 57 60  0  0  0  0  0  0  0  0999 V2000
   -5.6178    0.4399    1.4233 C   0  0  0  0  0  0  0  0  0  0  0  0
   -4.4568    1.1902    1.5972 C   0  0  0  0  0  0  0  0  0  0  0  0
   -3.3541    0.9817    0.7644 C   0  0  0  0  0  0  0  0  0  0  0  0
   -3.3977    0.0009   -0.2362 C   0  0  0  0  0  0  0  0  0  0  0  0
   -2.3190   -0.2382   -1.1878 N   0  0  0  0  0  0  0  0  0  0  0  0
   -0.9810    0.1031   -0.7136 C   0  0  0  0  0  0  0  0  0  0  0  0
   -0.2960   -0.8335   -0.0214 C   0  0  0  0  0  0  0  0  0  0  0  0
    1.0470   -0.6087    0.4207 C   0  0  0  0  0  0  0  0  0  0  0  0
    2.1799   -0.4322    0.7829 C   0  0  0  0  0  0  0  0  0  0  0  0
    3.5339   -0.2153    1.2024 C   0  0  0  0  0  0  0  0  0  0  0  0
    4.0234   -0.9502    2.2879 C   0  0  0  0  0  0  0  0  0  0  0  0
    5.3350   -0.7679    2.7226 C   0  0  0  0  0  0  0  0  0  0  0  0
    6.1582    0.1503    2.0763 C   0  0  0  0  0  0  0  0  0  0  0  0
    5.6761    0.8878    0.9906 C   0  0  0  0  0  0  0  0  0  0  0  0
    4.3643    0.7071    0.5390 C   0  0  0  0  0  0  0  0  0  0  0  0
    3.8072    1.3913   -0.5118 O   0  0  0  0  0  0  0  0  0  0  0  0
    4.6946    2.0858   -1.3796 C   0  0  0  0  0  0  0  0  0  0  0  0
   -0.8423   -2.6037    0.4188 Si  0  0  0  0  0  4  0  0  0  0  0  0
   -1.9357   -2.5875    1.9455 C   0  0  0  0  0  0  0  0  0  0  0  0
   -1.7157   -3.4373   -1.0201 C   0  0  0  0  0  0  0  0  0  0  0  0
    0.6675   -3.6851    0.8270 C   0  0  0  0  0  0  0  0  0  0  0  0
   -0.5317    1.4304   -1.1968 C   0  0  0  0  0  0  0  0  0  0  0  0
    0.4379    2.2964   -0.7078 C   0  0  0  0  0  0  0  0  0  0  0  0
    0.6275    3.5443   -1.3210 C   0  0  0  0  0  0  0  0  0  0  0  0
   -0.1634    3.9412   -2.4078 C   0  0  0  0  0  0  0  0  0  0  0  0
   -1.1561    3.0958   -2.8918 C   0  0  0  0  0  0  0  0  0  0  0  0
   -1.3015    1.8638   -2.2719 C   0  0  0  0  0  0  0  0  0  0  0  0
   -2.5218    0.6800   -2.6675 S   0  0  0  0  0  6  0  0  0  0  0  0
   -2.0088   -0.0944   -3.7780 O   0  0  0  0  0  0  0  0  0  0  0  0
   -3.8010    1.3551   -2.7118 O   0  0  0  0  0  0  0  0  0  0  0  0
   -4.5812   -0.7264   -0.4188 C   0  0  0  0  0  0  0  0  0  0  0  0
   -5.6831   -0.5157    0.4121 C   0  0  0  0  0  0  0  0  0  0  0  0
   -6.4770    0.6103    2.0671 H   0  0  0  0  0  0  0  0  0  0  0  0
   -4.4127    1.9469    2.3775 H   0  0  0  0  0  0  0  0  0  0  0  0
   -2.4751    1.5988    0.9209 H   0  0  0  0  0  0  0  0  0  0  0  0
    3.3838   -1.6680    2.7971 H   0  0  0  0  0  0  0  0  0  0  0  0
    5.7124   -1.3387    3.5654 H   0  0  0  0  0  0  0  0  0  0  0  0
    7.1801    0.2967    2.4179 H   0  0  0  0  0  0  0  0  0  0  0  0
    6.3469    1.6016    0.5237 H   0  0  0  0  0  0  0  0  0  0  0  0
    5.1111    2.9692   -0.8847 H   0  0  0  0  0  0  0  0  0  0  0  0
    5.4888    1.4292   -1.7527 H   0  0  0  0  0  0  0  0  0  0  0  0
    4.1168    2.4302   -2.2434 H   0  0  0  0  0  0  0  0  0  0  0  0
   -1.4248   -2.0930    2.7772 H   0  0  0  0  0  0  0  0  0  0  0  0
   -2.8771   -2.0653    1.7639 H   0  0  0  0  0  0  0  0  0  0  0  0
   -2.1734   -3.6104    2.2536 H   0  0  0  0  0  0  0  0  0  0  0  0
   -2.6985   -2.9994   -1.2060 H   0  0  0  0  0  0  0  0  0  0  0  0
   -1.1213   -3.3484   -1.9355 H   0  0  0  0  0  0  0  0  0  0  0  0
   -1.8601   -4.5017   -0.8113 H   0  0  0  0  0  0  0  0  0  0  0  0
    0.3476   -4.7154    1.0113 H   0  0  0  0  0  0  0  0  0  0  0  0
    1.3747   -3.6870   -0.0082 H   0  0  0  0  0  0  0  0  0  0  0  0
    1.1761   -3.3190    1.7240 H   0  0  0  0  0  0  0  0  0  0  0  0
    1.0490    2.0443    0.1523 H   0  0  0  0  0  0  0  0  0  0  0  0
    1.3949    4.2150   -0.9394 H   0  0  0  0  0  0  0  0  0  0  0  0
   -0.0074    4.9162   -2.8637 H   0  0  0  0  0  0  0  0  0  0  0  0
   -1.7962    3.3881   -3.7181 H   0  0  0  0  0  0  0  0  0  0  0  0
   -4.6523   -1.4610   -1.2172 H   0  0  0  0  0  0  0  0  0  0  0  0
   -6.5938   -1.0885    0.2611 H   0  0  0  0  0  0  0  0  0  0  0  0
  1  2  2  0
  2  3  1  0
  3  4  2  0
  4  5  1  0
  5  6  1  0
  6  7  2  0
  7  8  1  0
  8  9  3  0
  9 10  1  0
 10 11  2  0
 11 12  1  0
 12 13  2  0
 13 14  1  0
 14 15  2  0
 15 16  1  0
 16 17  1  0
  7 18  1  0
 18 19  1  0
 18 20  1  0
 18 21  1  0
  6 22  1  0
 22 23  2  0
 23 24  1  0
 24 25  2  0
 25 26  1  0
 26 27  2  0
 27 28  1  0
 28 29  2  0
 28 30  2  0
  4 31  1  0
 31 32  2  0
 32  1  1  0
 28  5  1  0
 15 10  1  0
 27 22  1  0
  1 33  1  0
  2 34  1  0
  3 35  1  0
 11 36  1  0
 12 37  1  0
 13 38  1  0
 14 39  1  0
 17 40  1  0
 17 41  1  0
 17 42  1  0
 19 43  1  0
 19 44  1  0
 19 45  1  0
 20 46  1  0
 20 47  1  0
 20 48  1  0
 21 49  1  0
 21 50  1  0
 21 51  1  0
 23 52  1  0
 24 53  1  0
 25 54  1  0
 26 55  1  0
 31 56  1  0
 32 57  1  0
M  END
