
  --CCDC--092525    3D                              

 80 84  0  0  0  0  0  0  0  0999 V2000
    1.2098   -0.3724   -0.9113 Cl     0
    1.8005    1.9415   -0.3662 Ru     0
    3.8261    1.3615   -0.0140 C      0
    4.6109    1.9025    1.1608 C      0
    5.8777    1.3483    1.3919 C      0
    6.6422    1.7185    2.4826 C      0
    6.1514    2.6534    3.3652 C      0
    4.9021    3.2147    3.1573 C      0
    4.1087    2.8580    2.0622 C      0
    2.7713    3.5560    1.8657 C      0
    2.4816    4.3465    3.1323 C      0
    1.6960    2.6572    1.6458 N      0
    1.7641    1.5738    2.5616 C      0
    0.4683    3.3499    1.8211 C      0
   -0.5284    2.6159   -0.7150 Cl     0
    2.4246    3.2498   -1.9415 C      0
    2.4941    2.5614   -3.2305 N      0
    3.7749    2.7394   -3.8892 C      0
    4.6765    3.3741   -2.8431 C      0
    3.7607    3.7998   -1.7966 N      0
    4.0980    4.7896   -0.8016 C      0
    3.2201    5.8391   -0.4785 C      0
    1.9547    6.1598   -1.2318 C      0
    3.5684    6.6964    0.5611 C      0
    4.7647    6.5895    1.2474 C      0
    5.1096    7.5375    2.3698 C      0
    5.6470    5.6030    0.8460 C      0
    5.3496    4.7045   -0.1740 C      0
    6.4001    3.6867   -0.5352 C      0
    1.3117    2.3174   -4.0117 C      0
    0.9074    1.0136   -4.3287 C      0
    1.6404   -0.2220   -3.8749 C      0
   -0.2593    0.8539   -5.0711 C      0
   -1.0226    1.9278   -5.4986 C      0
   -2.2855    1.7161   -6.2974 C      0
   -0.5784    3.2024   -5.1895 C      0
    0.5895    3.4252   -4.4669 C      0
    1.0499    4.8408   -4.2329 C      0
    4.3050    0.6626   -0.6957 H      0
    6.2691    0.6084    0.6953 H      0
    7.6237    1.2744    2.6419 H      0
    6.7455    2.9521    4.2277 H      0
    4.5280    3.9530    3.8650 H      0
    2.8404    4.2643    1.0294 H      0
    1.5098    4.8341    3.0916 H      0
    2.5038    3.6980    4.0057 H      0
    3.2308    5.1229    3.2722 H      0
    2.5408    0.8607    2.2926 H      0
    0.8201    1.0330    2.5731 H      0
    1.9570    1.9313    3.5709 H      0
   -0.3550    2.7694    1.4134 H      0
    0.4887    4.3182    1.3254 H      0
    0.2304    3.5042    2.8712 H      0
    3.6723    3.3946   -4.7530 H      0
    4.1772    1.7789   -4.2079 H      0
    5.2110    4.2267   -3.2595 H      0
    5.3926    2.6492   -2.4589 H      0
    1.1321    5.5368   -0.8869 H      0
    2.0863    5.9876   -2.2980 H      0
    1.6742    7.2013   -1.0888 H      0
    2.8796    7.4884    0.8358 H      0
    4.6366    8.5053    2.2163 H      0
    6.1851    7.6914    2.4279 H      0
    4.7715    7.1428    3.3256 H      0
    6.6063    5.5252    1.3469 H      0
    5.9694    2.7043   -0.6985 H      0
    7.1405    3.6033    0.2575 H      0
    6.9175    3.9803   -1.4462 H      0
    0.9550   -0.9277   -3.4101 H      0
    2.4108    0.0286   -3.1501 H      0
    2.1172   -0.7182   -4.7176 H      0
   -0.5868   -0.1504   -5.3188 H      0
   -2.2197    0.8052   -6.8887 H      0
   -3.1482    1.6317   -5.6398 H      0
   -2.4568    2.5491   -6.9760 H      0
   -1.1554    4.0558   -5.5300 H      0
    0.8272    5.4645   -5.0961 H      0
    2.1241    4.8716   -4.0630 H      0
    0.5596    5.2771   -3.3666 H      0
    1.7131    4.0706   -2.0193 H      0
  1  2  1
  2  3  2
  3  4  1
  4  5  4
  5  6  4
  6  7  4
  7  8  4
  8  9  4
  4  9  4
  9 10  1
 10 11  1
 10 12  1
  2 12  1
 12 13  1
 12 14  1
  2 15  1
  2 16  1
 16 17  1
 17 18  1
 18 19  1
 19 20  1
 16 20  1
 20 21  1
 21 22  4
 22 23  1
 22 24  4
 24 25  4
 25 26  1
 25 27  4
 27 28  4
 21 28  4
 28 29  1
 17 30  1
 30 31  4
 31 32  1
 31 33  4
 33 34  4
 34 35  1
 34 36  4
 36 37  4
 30 37  4
 37 38  1
  3 39  1
  5 40  1
  6 41  1
  7 42  1
  8 43  1
 10 44  1
 11 45  1
 11 46  1
 11 47  1
 13 48  1
 13 49  1
 13 50  1
 14 51  1
 14 52  1
 14 53  1
 18 54  1
 18 55  1
 19 56  1
 19 57  1
 23 58  1
 23 59  1
 23 60  1
 24 61  1
 26 62  1
 26 63  1
 26 64  1
 27 65  1
 29 66  1
 29 67  1
 29 68  1
 32 69  1
 32 70  1
 32 71  1
 33 72  1
 35 73  1
 35 74  1
 35 75  1
 36 76  1
 38 77  1
 38 78  1
 38 79  1
 16 80  1
M  END
$$$$
