
 OpenBabel09252518523D

 32 35  0  0  0  0  0  0  0  0999 V2000
    0.9906   -0.0186   -0.0137 O   0  0  0  0  0  0  0  0  0  0  0  0
    2.2138    0.0214    0.0505 C   0  0  0  0  0  0  0  0  0  0  0  0
    2.8567    1.1833    0.3417 N   0  0  0  0  0  0  0  0  0  0  0  0
    4.2326    1.3381    0.2082 C   0  0  0  0  0  0  0  0  0  0  0  0
    4.7664    2.6232    0.3583 C   0  0  0  0  0  0  0  0  0  0  0  0
    6.1058    2.8502    0.0692 C   0  0  0  0  0  0  0  0  0  0  0  0
    6.8797    1.8076   -0.4264 C   0  0  0  0  0  0  0  0  0  0  0  0
    6.3314    0.5247   -0.5687 C   0  0  0  0  0  0  0  0  0  0  0  0
    5.0190    0.2369   -0.1671 C   0  0  0  0  0  0  0  0  0  0  0  0
    4.4179   -1.1449   -0.1426 C   0  0  0  0  0  0  0  0  0  0  0  0
    3.0637   -1.2036   -0.1062 C   0  0  0  0  0  0  0  0  0  0  0  0
    2.2285   -2.4511   -0.1394 C   0  0  0  0  0  0  0  0  0  0  0  0
    2.9651   -3.7671   -0.3112 C   0  0  0  0  0  0  0  0  0  0  0  0
    4.4594   -3.6897   -0.2078 C   0  0  0  0  0  0  0  0  0  0  0  0
    5.1552   -4.9183   -0.2075 C   0  0  0  0  0  0  0  0  0  0  0  0
    6.5331   -4.9594   -0.0514 C   0  0  0  0  0  0  0  0  0  0  0  0
    7.2200   -3.7749    0.1514 C   0  0  0  0  0  0  0  0  0  0  0  0
    6.5293   -2.5556    0.1654 C   0  0  0  0  0  0  0  0  0  0  0  0
    5.1465   -2.4659   -0.0809 C   0  0  0  0  0  0  0  0  0  0  0  0
    2.2608    1.9862    0.4872 H   0  0  0  0  0  0  0  0  0  0  0  0
    4.1416    3.4523    0.6786 H   0  0  0  0  0  0  0  0  0  0  0  0
    6.5314    3.8430    0.1882 H   0  0  0  0  0  0  0  0  0  0  0  0
    7.9139    1.9888   -0.7103 H   0  0  0  0  0  0  0  0  0  0  0  0
    6.9595   -0.2329   -1.0261 H   0  0  0  0  0  0  0  0  0  0  0  0
    1.6381   -2.5019    0.7856 H   0  0  0  0  0  0  0  0  0  0  0  0
    1.4978   -2.3747   -0.9564 H   0  0  0  0  0  0  0  0  0  0  0  0
    2.6005   -4.4580    0.4623 H   0  0  0  0  0  0  0  0  0  0  0  0
    2.6996   -4.2129   -1.2776 H   0  0  0  0  0  0  0  0  0  0  0  0
    4.6083   -5.8533   -0.3167 H   0  0  0  0  0  0  0  0  0  0  0  0
    7.0590   -5.9097   -0.0561 H   0  0  0  0  0  0  0  0  0  0  0  0
    8.2947   -3.7909    0.3138 H   0  0  0  0  0  0  0  0  0  0  0  0
    7.1203   -1.6814    0.4112 H   0  0  0  0  0  0  0  0  0  0  0  0
  1  2  2  0  0  0  0
  2  3  1  0  0  0  0
  2 11  1  0  0  0  0
  3  4  1  0  0  0  0
  3 20  1  0  0  0  0
  4  5  1  0  0  0  0
  4  9  2  0  0  0  0
  5  6  2  0  0  0  0
  5 21  1  0  0  0  0
  6  7  1  0  0  0  0
  6 22  1  0  0  0  0
  7  8  2  0  0  0  0
  7 23  1  0  0  0  0
  8  9  1  0  0  0  0
  8 24  1  0  0  0  0
  9 10  1  0  0  0  0
 10 11  2  0  0  0  0
 10 19  1  0  0  0  0
 11 12  1  0  0  0  0
 12 13  1  0  0  0  0
 12 25  1  0  0  0  0
 12 26  1  0  0  0  0
 13 14  1  0  0  0  0
 13 27  1  0  0  0  0
 13 28  1  0  0  0  0
 14 15  1  0  0  0  0
 14 19  2  0  0  0  0
 15 16  2  0  0  0  0
 15 29  1  0  0  0  0
 16 17  1  0  0  0  0
 16 30  1  0  0  0  0
 17 18  2  0  0  0  0
 17 31  1  0  0  0  0
 18 19  1  0  0  0  0
 18 32  1  0  0  0  0
M  END
$$$$
