
     RDKit          3D

 55 59  0  0  0  0  0  0  0  0999 V2000
    3.7716    3.7354   -0.2543 C   0  0  0  0  0  0  0  0  0  0  0  0
    3.5433    2.8374   -1.2838 C   0  0  0  0  0  0  0  0  0  0  0  0
    2.8315    1.6891   -1.0046 C   0  0  0  0  0  0  0  0  0  0  0  0
    2.3289    1.3869    0.2662 C   0  0  0  0  0  0  0  0  0  0  0  0
    1.4211   -0.1667    0.4342 P   0  0  0  0  0  5  0  0  0  0  0  0
    2.5824   -1.4793    0.0911 C   0  0  0  0  0  0  0  0  0  0  0  0
    3.8901   -1.2642   -0.2990 C   0  0  0  0  0  0  0  0  0  0  0  0
    4.7941   -2.2600   -0.5661 C   0  0  0  0  0  0  0  0  0  0  0  0
    4.3884   -3.5703   -0.4424 C   0  0  0  0  0  0  0  0  0  0  0  0
    3.1099   -3.8609   -0.0609 C   0  0  0  0  0  0  0  0  0  0  0  0
    2.2433   -2.8192    0.1950 C   0  0  0  0  0  0  0  0  0  0  0  0
    0.8008   -0.3188    2.2269 S   0  0  0  0  0  4  0  0  0  0  0  0
   -0.2761   -1.8502    2.3740 Cu  0  0  0  0  0  3  0  0  0  0  0  0
   -0.1088   -3.1661    3.8366 I   0  0  0  0  0  0  0  0  0  0  0  0
   -1.5714   -2.1284    0.8711 S   0  0  0  0  0  4  0  0  0  0  0  0
   -1.5347   -0.4908   -0.0710 P   0  0  0  0  0  5  0  0  0  0  0  0
   -2.6620   -0.6299   -1.4529 C   0  0  0  0  0  0  0  0  0  0  0  0
   -3.7019    0.2681   -1.6582 C   0  0  0  0  0  0  0  0  0  0  0  0
   -4.5644    0.1528   -2.7248 C   0  0  0  0  0  0  0  0  0  0  0  0
   -4.4228   -0.8722   -3.6372 C   0  0  0  0  0  0  0  0  0  0  0  0
   -3.3972   -1.7883   -3.4663 C   0  0  0  0  0  0  0  0  0  0  0  0
   -2.5379   -1.6509   -2.3803 C   0  0  0  0  0  0  0  0  0  0  0  0
   -2.1870    0.7484    1.0145 C   0  0  0  0  0  0  0  0  0  0  0  0
   -3.4237    0.3865    1.5609 C   0  0  0  0  0  0  0  0  0  0  0  0
   -4.0777    1.2515    2.4389 C   0  0  0  0  0  0  0  0  0  0  0  0
   -3.5011    2.4472    2.7567 C   0  0  0  0  0  0  0  0  0  0  0  0
   -2.2656    2.8207    2.2174 C   0  0  0  0  0  0  0  0  0  0  0  0
   -1.6464    1.9539    1.3595 C   0  0  0  0  0  0  0  0  0  0  0  0
    0.0729   -0.0895   -0.7441 C   0  0  0  0  0  0  0  0  0  0  0  0
    2.5611    2.2765    1.2631 C   0  0  0  0  0  0  0  0  0  0  0  0
    3.2701    3.4347    1.0159 C   0  0  0  0  0  0  0  0  0  0  0  0
    4.3303    4.6340   -0.4792 H   0  0  0  0  0  0  0  0  0  0  0  0
    3.9273    3.0657   -2.2602 H   0  0  0  0  0  0  0  0  0  0  0  0
    2.6988    1.0403   -1.8707 H   0  0  0  0  0  0  0  0  0  0  0  0
    4.2355   -0.2459   -0.4041 H   0  0  0  0  0  0  0  0  0  0  0  0
    5.8128   -2.0524   -0.8700 H   0  0  0  0  0  0  0  0  0  0  0  0
    5.0553   -4.4061   -0.6393 H   0  0  0  0  0  0  0  0  0  0  0  0
    2.8005   -4.9008    0.0336 H   0  0  0  0  0  0  0  0  0  0  0  0
    1.2423   -3.0983    0.4938 H   0  0  0  0  0  0  0  0  0  0  0  0
    1.8915   -0.4055    3.0568 H   0  0  0  0  0  0  0  0  0  0  0  0
   -2.7803   -2.2408    1.5350 H   0  0  0  0  0  0  0  0  0  0  0  0
   -3.8321    1.0819   -0.9533 H   0  0  0  0  0  0  0  0  0  0  0  0
   -5.3692    0.8475   -2.8840 H   0  0  0  0  0  0  0  0  0  0  0  0
   -5.0786   -1.0123   -4.5027 H   0  0  0  0  0  0  0  0  0  0  0  0
   -3.2525   -2.6062   -4.1597 H   0  0  0  0  0  0  0  0  0  0  0  0
   -1.7343   -2.3655   -2.2431 H   0  0  0  0  0  0  0  0  0  0  0  0
   -3.9615   -0.5464    1.3662 H   0  0  0  0  0  0  0  0  0  0  0  0
   -5.0407    0.9826    2.8716 H   0  0  0  0  0  0  0  0  0  0  0  0
   -4.0438    3.0924    3.4447 H   0  0  0  0  0  0  0  0  0  0  0  0
   -1.8169    3.7524    2.4654 H   0  0  0  0  0  0  0  0  0  0  0  0
   -0.6943    2.1402    0.8874 H   0  0  0  0  0  0  0  0  0  0  0  0
   -0.0363    0.8946   -1.2479 H   0  0  0  0  0  0  0  0  0  0  0  0
    0.2918   -0.8056   -1.5551 H   0  0  0  0  0  0  0  0  0  0  0  0
    2.1700    2.0272    2.2224 H   0  0  0  0  0  0  0  0  0  0  0  0
    3.4535    4.1436    1.8160 H   0  0  0  0  0  0  0  0  0  0  0  0
  1  2  2  0
  2  3  1  0
  3  4  2  0
  4  5  1  0
  5  6  1  0
  6  7  2  0
  7  8  1  0
  8  9  2  0
  9 10  1  0
 10 11  2  0
  5 12  2  0
 12 13  1  0
 13 14  1  0
 13 15  1  0
 15 16  2  0
 16 17  1  0
 17 18  2  0
 18 19  1  0
 19 20  2  0
 20 21  1  0
 21 22  2  0
 16 23  1  0
 23 24  2  0
 24 25  1  0
 25 26  2  0
 26 27  1  0
 27 28  2  0
 16 29  1  0
  4 30  1  0
 30 31  2  0
 31  1  1  0
 29  5  1  0
 11  6  1  0
 22 17  1  0
 28 23  1  0
  1 32  1  0
  2 33  1  0
  3 34  1  0
  7 35  1  0
  8 36  1  0
  9 37  1  0
 10 38  1  0
 11 39  1  0
 12 40  1  0
 15 41  1  0
 18 42  1  0
 19 43  1  0
 20 44  1  0
 21 45  1  0
 22 46  1  0
 24 47  1  0
 25 48  1  0
 26 49  1  0
 27 50  1  0
 28 51  1  0
 29 52  1  0
 29 53  1  0
 30 54  1  0
 31 55  1  0
M  END
