
 OpenBabel09252514423D

 35 38  0  0  1  0  0  0  0  0999 V2000
    2.9457    0.0718    0.9907 H   0  0  0  0  0  0  0  0  0  0  0  0
    2.9147   -0.1636   -0.0675 C   0  0  0  0  0  3  0  0  0  0  0  0
    2.3331   -1.4281   -0.5020 C   0  0  0  0  0  3  0  0  0  0  0  0
    2.2157   -2.2068    0.2392 H   0  0  0  0  0  0  0  0  0  0  0  0
    1.7236   -1.5199   -1.8419 C   0  0  0  0  0  3  0  0  0  0  0  0
    0.3572   -1.8281   -1.8911 N   0  0  0  0  0  0  0  0  0  0  0  0
   -0.5411   -0.7419   -2.2019 C   0  0  0  0  0  0  0  0  0  0  0  0
   -0.4486    0.0953   -3.0842 O   0  0  0  0  0  0  0  0  0  0  0  0
   -1.5327   -0.6455   -1.0832 C   0  0  2  0  0  0  0  0  0  0  0  0
   -0.6378   -0.8041   -0.4453 H   0  0  0  0  0  0  0  0  0  0  0  0
   -1.9287    0.1883    0.1168 C   0  0  0  0  0  0  0  0  0  0  0  0
   -2.6606    0.9654   -0.1300 H   0  0  0  0  0  0  0  0  0  0  0  0
   -1.0847    0.6816    0.6219 H   0  0  0  0  0  0  0  0  0  0  0  0
   -2.5193   -1.0073    0.9385 C   0  0  2  0  0  0  0  0  0  0  0  0
   -3.1192   -0.4171    2.6474 Br  0  0  0  0  0  0  0  0  0  0  0  0
   -1.5033   -2.1059    1.0224 O   0  0  0  0  0  0  0  0  0  0  0  0
   -1.5310   -2.8278   -0.2641 C   0  0  2  0  0  0  0  0  0  0  0  0
   -2.1054   -4.4857    0.0385 Cl  0  0  0  0  0  0  0  0  0  0  0  0
   -0.1618   -2.9848   -1.0605 C   0  0  0  0  0  0  0  0  0  0  0  0
   -0.3084   -3.7602   -1.8267 H   0  0  0  0  0  0  0  0  0  0  0  0
    0.6101   -3.3617   -0.3857 H   0  0  0  0  0  0  0  0  0  0  0  0
   -2.4554   -1.9128   -1.0394 C   0  0  1  0  0  0  0  0  0  0  0  0
   -2.7845   -2.2773   -2.0156 H   0  0  0  0  0  0  0  0  0  0  0  0
   -3.5526   -1.4664   -0.0759 C   0  0  1  0  0  0  0  0  0  0  0  0
   -4.0956   -0.6101   -0.5004 H   0  0  0  0  0  0  0  0  0  0  0  0
   -5.0596   -2.7902    0.4800 I   0  0  0  0  0  0  0  0  0  0  0  0
    2.2743   -0.6220   -2.8616 C   0  0  0  0  0  3  0  0  0  0  0  0
    2.0374   -0.8052   -3.9046 H   0  0  0  0  0  0  0  0  0  0  0  0
    2.9040    0.6387   -2.4631 C   0  0  0  0  0  3  0  0  0  0  0  0
    3.1377    1.7264   -3.4597 C   0  0  0  0  0  0  0  0  0  0  0  0
    4.4597    2.0250   -3.5632 F   0  0  0  0  0  0  0  0  0  0  0  0
    2.7148    1.4102   -4.7104 F   0  0  0  0  0  0  0  0  0  0  0  0
    2.5085    2.8787   -3.1093 F   0  0  0  0  0  0  0  0  0  0  0  0
    3.1857    0.8784   -1.0454 C   0  0  0  0  0  3  0  0  0  0  0  0
    3.3822    1.8892   -0.7015 H   0  0  0  0  0  0  0  0  0  0  0  0
  1  2  1  0  0  0  0
  2  3  1  0  0  0  0
  2 34  1  0  0  0  0
  3  4  1  0  0  0  0
  3  5  1  0  0  0  0
  5 27  1  0  0  0  0
  5  6  1  0  0  0  0
  6  7  1  0  0  0  0
  6 19  1  0  0  0  0
  7  9  1  0  0  0  0
  7  8  2  0  0  0  0
  9 11  1  0  0  0  0
  9 22  1  0  0  0  0
  9 10  1  6  0  0  0
 11 14  1  0  0  0  0
 11 12  1  0  0  0  0
 11 13  1  0  0  0  0
 14 16  1  0  0  0  0
 14 24  1  0  0  0  0
 14 15  1  1  0  0  0
 16 17  1  0  0  0  0
 17 19  1  0  0  0  0
 17 22  1  0  0  0  0
 17 18  1  1  0  0  0
 19 20  1  0  0  0  0
 19 21  1  0  0  0  0
 22 24  1  0  0  0  0
 22 23  1  6  0  0  0
 24 26  1  0  0  0  0
 24 25  1  6  0  0  0
 27 28  1  0  0  0  0
 27 29  1  0  0  0  0
 29 30  1  0  0  0  0
 29 34  1  0  0  0  0
 30 31  1  0  0  0  0
 30 32  1  0  0  0  0
 30 33  1  0  0  0  0
 34 35  1  0  0  0  0
M  END
$$$$
