
  --CCDC--092525    3D                              

 42 41  0  0  0  0  0  0  0  0999 V2000
    0.0222    0.0031   -0.0011 C      0
    1.9492    0.0112   -0.6769 Pt     0
    1.3539    1.2036   -2.2233 C      0
    2.3398    1.6556    0.4660 C      0
    1.5586   -1.6331   -1.8196 N      0
    0.4713   -1.7240   -2.4412 N      3
   -0.4680   -1.9346   -3.0590 N      5
    2.5822   -1.4538    1.1359 P      0
    1.1176   -2.1596    1.9269 C      0
    3.5290   -2.8723    0.5206 C      0
    3.4666   -0.5392    2.4250 C      0
    4.2309    0.0210   -1.4814 P      0
    4.4233   -1.3055   -2.6969 C      0
    5.4674   -0.1520   -0.1717 C      0
    4.6893    1.5874   -2.2626 C      0
   -0.5344    0.7990   -0.4924 H      0
   -0.4431   -0.9526   -0.2304 H      0
    0.0086    0.1691    1.0721 H      0
    1.0852    2.1846   -1.8392 H      0
    0.4895    0.7631   -2.7148 H      0
    2.1509    1.3128   -2.9499 H      0
    1.7455    2.4924    0.1061 H      0
    2.0814    1.4456    1.5022 H      0
    3.3971    1.9031    0.3984 H      0
    1.4045   -2.9367    2.6314 H      0
    0.4555   -2.6029    1.1869 H      0
    0.5629   -1.4024    2.4745 H      0
    2.8592   -3.6472    0.1543 H      0
    4.1299   -3.3055    1.3170 H      0
    4.1937   -2.6094   -0.2981 H      0
    2.7761   -0.2289    3.2070 H      0
    3.9465    0.3555    2.0405 H      0
    4.2324   -1.1613    2.8832 H      0
    3.7500   -1.1504   -3.5385 H      0
    4.1960   -2.2747   -2.2568 H      0
    5.4417   -1.3330   -3.0792 H      0
    5.2038   -0.9202    0.5485 H      0
    5.5710    0.7819    0.3765 H      0
    6.4399   -0.3970   -0.5928 H      0
    4.2719    1.6746   -3.2622 H      0
    5.7712    1.6635   -2.3440 H      0
    4.3373    2.4260   -1.6646 H      0
  1  2  1
  2  3  1
  2  4  1
  2  5  1
  5  6  2
  6  7  2
  2  8  1
  8  9  1
  8 10  1
  8 11  1
  2 12  1
 12 13  1
 12 14  1
 12 15  1
  1 16  1
  1 17  1
  1 18  1
  3 19  1
  3 20  1
  3 21  1
  4 22  1
  4 23  1
  4 24  1
  9 25  1
  9 26  1
  9 27  1
 10 28  1
 10 29  1
 10 30  1
 11 31  1
 11 32  1
 11 33  1
 13 34  1
 13 35  1
 13 36  1
 14 37  1
 14 38  1
 14 39  1
 15 40  1
 15 41  1
 15 42  1
M  CHG  2   6   1   7  -1
M  END
$$$$
