
     RDKit          3D

 64 65  0  0  0  0  0  0  0  0999 V2000
    3.3630    1.6199    0.4149 C   0  0  0  0  0  0  0  0  0  0  0  0
    2.2425    0.6569    0.3538 C   0  0  0  0  0  0  0  0  0  0  0  0
    1.1227    1.0870   -0.2222 N   0  0  0  0  0  0  0  0  0  0  0  0
    0.1925    0.1463   -0.2207 N   0  0  0  0  0  0  0  0  0  0  0  0
   -1.5272    0.2793   -0.9847 Pt  0  0  0  0  0  6  0  0  0  0  0  0
   -0.7073   -0.5876   -2.4586 C   0  0  0  0  0  0  0  0  0  0  0  0
   -0.8773    1.8987   -1.8586 C   0  0  0  0  0  0  0  0  0  0  0  0
   -2.9821    0.4762   -2.1798 C   0  0  0  0  0  0  0  0  0  0  0  0
   -2.0348   -1.4375   -0.3083 P   0  0  0  0  0  5  0  0  0  0  0  0
   -1.4883   -1.6019    1.4126 C   0  0  0  0  0  0  0  0  0  0  0  0
   -3.7965   -1.5918   -0.1271 C   0  0  0  0  0  0  0  0  0  0  0  0
   -1.0616   -2.8126   -0.9417 C   0  0  0  0  0  0  0  0  0  0  0  0
   -2.2682    1.3927    0.3470 P   0  0  0  0  0  5  0  0  0  0  0  0
   -2.7150    0.9434    1.9506 C   0  0  0  0  0  0  0  0  0  0  0  0
   -0.8043    2.3719    0.9116 C   0  0  0  0  0  0  0  0  0  0  0  0
   -3.1692    2.8708   -0.3084 C   0  0  0  0  0  0  0  0  0  0  0  0
    0.7153   -0.9173    0.3672 N   0  0  0  0  0  0  0  0  0  0  0  0
    1.9687   -0.6346    0.7293 C   0  0  0  0  0  0  0  0  0  0  0  0
    2.7487   -1.7106    1.4176 C   0  0  0  0  0  0  0  0  0  0  0  0
    3.9423   -2.1237    0.5906 C   0  0  0  0  0  0  0  0  0  0  0  0
    5.1921   -1.3714    0.9594 C   0  0  0  0  0  0  0  0  0  0  0  0
    5.2386    0.0038    0.3406 C   0  0  0  0  0  0  0  0  0  0  0  0
    4.5190    1.0217    1.1671 C   0  0  0  0  0  0  0  0  0  0  0  0
    3.7158    1.8598   -0.6035 H   0  0  0  0  0  0  0  0  0  0  0  0
    3.0643    2.5757    0.9315 H   0  0  0  0  0  0  0  0  0  0  0  0
   -0.5709    0.0784   -3.3370 H   0  0  0  0  0  0  0  0  0  0  0  0
    0.2718   -0.9903   -2.2464 H   0  0  0  0  0  0  0  0  0  0  0  0
   -1.4665   -1.3246   -2.8478 H   0  0  0  0  0  0  0  0  0  0  0  0
    0.1880    1.9847   -1.7268 H   0  0  0  0  0  0  0  0  0  0  0  0
   -1.5336    2.7161   -1.6716 H   0  0  0  0  0  0  0  0  0  0  0  0
   -1.0009    1.6886   -2.9725 H   0  0  0  0  0  0  0  0  0  0  0  0
   -3.2361   -0.5628   -2.5196 H   0  0  0  0  0  0  0  0  0  0  0  0
   -3.8145    0.8009   -1.5627 H   0  0  0  0  0  0  0  0  0  0  0  0
   -2.7430    1.0546   -3.0660 H   0  0  0  0  0  0  0  0  0  0  0  0
   -2.4923   -1.7344   -1.5043 H   0  0  0  0  0  0  0  0  0  0  0  0
   -2.3016   -2.0202    2.0235 H   0  0  0  0  0  0  0  0  0  0  0  0
   -1.0657   -0.6651    1.6389 H   0  0  0  0  0  0  0  0  0  0  0  0
   -0.6836   -2.3600    1.5550 H   0  0  0  0  0  0  0  0  0  0  0  0
   -4.0972   -1.4782    0.9692 H   0  0  0  0  0  0  0  0  0  0  0  0
   -4.2121   -2.6502   -0.2312 H   0  0  0  0  0  0  0  0  0  0  0  0
   -4.4783   -0.8308   -0.5459 H   0  0  0  0  0  0  0  0  0  0  0  0
   -1.5467   -3.8126   -0.7719 H   0  0  0  0  0  0  0  0  0  0  0  0
   -0.1474   -3.0369   -0.2719 H   0  0  0  0  0  0  0  0  0  0  0  0
   -0.5150   -2.8101   -1.8720 H   0  0  0  0  0  0  0  0  0  0  0  0
   -3.4747    0.8349    0.0999 H   0  0  0  0  0  0  0  0  0  0  0  0
   -3.2196    0.0869    2.3597 H   0  0  0  0  0  0  0  0  0  0  0  0
   -3.3982    1.8205    2.2887 H   0  0  0  0  0  0  0  0  0  0  0  0
   -1.9484    1.0831    2.8048 H   0  0  0  0  0  0  0  0  0  0  0  0
   -0.4554    2.7670   -0.0186 H   0  0  0  0  0  0  0  0  0  0  0  0
   -0.2419    1.6399    1.4624 H   0  0  0  0  0  0  0  0  0  0  0  0
   -1.2596    3.1653    1.5567 H   0  0  0  0  0  0  0  0  0  0  0  0
   -2.5533    3.8030   -0.3409 H   0  0  0  0  0  0  0  0  0  0  0  0
   -3.5267    2.7956   -1.3343 H   0  0  0  0  0  0  0  0  0  0  0  0
   -3.9467    3.1897    0.4335 H   0  0  0  0  0  0  0  0  0  0  0  0
    2.1222   -2.6223    1.5091 H   0  0  0  0  0  0  0  0  0  0  0  0
    3.0017   -1.4399    2.4651 H   0  0  0  0  0  0  0  0  0  0  0  0
    3.6905   -1.8207   -0.4680 H   0  0  0  0  0  0  0  0  0  0  0  0
    4.0935   -3.2175    0.5880 H   0  0  0  0  0  0  0  0  0  0  0  0
    5.4130   -1.3578    2.0323 H   0  0  0  0  0  0  0  0  0  0  0  0
    6.0300   -1.9417    0.4612 H   0  0  0  0  0  0  0  0  0  0  0  0
    6.3156    0.3099    0.1982 H   0  0  0  0  0  0  0  0  0  0  0  0
    4.8285   -0.0460   -0.6791 H   0  0  0  0  0  0  0  0  0  0  0  0
    5.2355    1.8445    1.4479 H   0  0  0  0  0  0  0  0  0  0  0  0
    4.1460    0.6434    2.1300 H   0  0  0  0  0  0  0  0  0  0  0  0
  1  2  1  0
  2  3  2  0
  3  4  1  0
  4  5  1  0
  5  6  1  0
  5  7  1  0
  5  8  1  0
  5  9  1  0
  9 10  1  0
  9 11  1  0
  9 12  1  0
  5 13  1  0
 13 14  1  0
 13 15  1  0
 13 16  1  0
  4 17  1  0
 17 18  2  0
 18 19  1  0
 19 20  1  0
 20 21  1  0
 21 22  1  0
 22 23  1  0
 23  1  1  0
 18  2  1  0
  1 24  1  0
  1 25  1  0
  6 26  1  0
  6 27  1  0
  6 28  1  0
  7 29  1  0
  7 30  1  0
  7 31  1  0
  8 32  1  0
  8 33  1  0
  8 34  1  0
  9 35  1  0
 10 36  1  0
 10 37  1  0
 10 38  1  0
 11 39  1  0
 11 40  1  0
 11 41  1  0
 12 42  1  0
 12 43  1  0
 12 44  1  0
 13 45  1  0
 14 46  1  0
 14 47  1  0
 14 48  1  0
 15 49  1  0
 15 50  1  0
 15 51  1  0
 16 52  1  0
 16 53  1  0
 16 54  1  0
 19 55  1  0
 19 56  1  0
 20 57  1  0
 20 58  1  0
 21 59  1  0
 21 60  1  0
 22 61  1  0
 22 62  1  0
 23 63  1  0
 23 64  1  0
M  END
