
  --CCDC--092525    3D                              

 80 95  0  0  0  0  0  0  0  0999 V2000
   -0.4623   -2.5787   -0.7681 C      0
    0.8736   -2.4988   -1.2610 O      0
    1.9262   -2.8976   -0.4751 C      0
    3.2047   -2.8027   -0.9934 C      0
    4.2925   -3.1895   -0.2327 C      0
    4.1259   -3.6755    1.0557 C      0
    2.8351   -3.7780    1.5647 C      0
    1.7429   -3.3886    0.8087 C      0
    5.2982   -4.0401    1.7837 N      0
    7.0114   -4.0842    0.7494 Cu     0
    7.6857   -6.1334   -0.2647 P      0
    7.0171   -6.2529   -1.9419 C      0
    5.7513   -5.7597   -2.2358 C      0
    5.2160   -5.9120   -3.5039 C      0
    5.9232   -6.5795   -4.4800 C      0
    7.1614   -7.1092   -4.1885 C      0
    7.7038   -6.9602   -2.9229 C      0
    7.0089   -7.5500    0.6352 C      0
    5.6902   -7.9394    0.4277 C      0
    5.1432   -8.9804    1.1591 C      0
    5.8960   -9.6273    2.1149 C      0
    7.1939   -9.2295    2.3512 C      0
    7.7485   -8.1889    1.6248 C      0
    9.4860   -6.3343   -0.3892 C      0
   10.6021   -6.5674    0.5852 C      0
   11.8898   -6.1075    0.2086 C      0
   11.8060   -5.7287   -1.1064 C      0
   10.4718   -6.0025   -1.4832 C      0
   10.4850   -4.5456    0.0273 Fe     0
   10.0527   -2.8077    0.5405 C      0
   10.7117   -3.6497    1.8173 C      0
   10.2215   -2.6194    1.3136 C      0
    9.7097   -2.3405   -0.0611 C      0
    9.7386   -3.0531   -1.0788 C      0
    7.9479   -1.9981    0.0989 P      0
    7.6731   -0.7040    1.3323 C      0
    6.4851   -0.6606    2.0532 C      0
    6.2442    0.3737    2.9422 C      0
    7.1711    1.3807    3.1029 C      0
    8.3372    1.3648    2.3687 C      0
    8.5862    0.3344    1.4775 C      0
    7.2940   -1.4360   -1.4914 C      0
    6.9488   -2.3544   -2.4767 C      0
    6.5213   -1.9190   -3.7199 C      0
    6.4560   -0.5710   -3.9985 C      0
    6.8279    0.3472   -3.0405 C      0
    7.2566   -0.0795   -1.7946 C      0
    5.3945   -4.3457    3.1733 C      0
    4.4836   -4.3489    3.9772 O      0
    6.7994   -4.6641    3.7200 C      0
    7.6490   -3.6704    3.5227 F      0
    7.3238   -5.7322    3.1417 F      0
    6.7861   -4.9053    5.0208 F      0
   -1.1705   -2.2249   -1.5145 H      0
   -0.5804   -1.9706    0.1263 H      0
   -0.7198   -3.6053   -0.5164 H      0
    3.3546   -2.4231   -1.9987 H      0
    5.2914   -3.1101   -0.6478 H      0
    2.6598   -4.1740    2.5570 H      0
    0.7505   -3.4773    1.2372 H      0
    5.1789   -5.2544   -1.4665 H      0
    4.2348   -5.5070   -3.7287 H      0
    5.5037   -6.6927   -5.4741 H      0
    7.7125   -7.6472   -4.9528 H      0
    8.6708   -7.3970   -2.6973 H      0
    5.0870   -7.4265   -0.3141 H      0
    4.1178   -9.2866    0.9802 H      0
    5.4662  -10.4455    2.6833 H      0
    7.7831   -9.7320    3.1112 H      0
    8.7654   -7.8729    1.8300 H      0
    5.7443   -1.4423    1.9209 H      0
    5.3214    0.3923    3.5126 H      0
    6.9811    2.1872    3.8034 H      0
    9.0618    2.1636    2.4876 H      0
    9.4996    0.3360    0.8918 H      0
    7.0119   -3.4176   -2.2695 H      0
    6.2389   -2.6419   -4.4781 H      0
    6.1165   -0.2332   -4.9721 H      0
    6.7868    1.4081   -3.2638 H      0
    7.5620    0.6485   -1.0504 H      0
  1  2  1
  2  3  1
  3  4  4
  4  5  4
  5  6  4
  6  7  4
  7  8  4
  3  8  4
  6  9  1
  9 10  1
 10 11  1
 11 12  1
 12 13  4
 13 14  4
 14 15  4
 15 16  4
 16 17  4
 12 17  4
 11 18  1
 18 19  4
 19 20  4
 20 21  4
 21 22  4
 22 23  4
 18 23  4
 11 24  1
 24 25  4
 25 26  4
 26 27  4
 27 28  4
 24 28  4
 28 29  1
 24 29  1
 25 29  1
 26 29  1
 27 29  1
 29 30  1
 30 31  4
 29 31  1
 31 32  4
 29 32  1
 32 33  4
 29 33  1
 33 34  4
 29 34  1
 30 34  4
 33 35  1
 10 35  1
 35 36  1
 36 37  4
 37 38  4
 38 39  4
 39 40  4
 40 41  4
 36 41  4
 35 42  1
 42 43  4
 43 44  4
 44 45  4
 45 46  4
 46 47  4
 42 47  4
  9 48  1
 48 49  2
 48 50  1
 50 51  1
 50 52  1
 50 53  1
  1 54  1
  1 55  1
  1 56  1
  4 57  1
  5 58  1
  7 59  1
  8 60  1
 13 61  1
 14 62  1
 15 63  1
 16 64  1
 17 65  1
 19 66  1
 20 67  1
 21 68  1
 22 69  1
 23 70  1
 37 71  1
 38 72  1
 39 73  1
 40 74  1
 41 75  1
 43 76  1
 44 77  1
 45 78  1
 46 79  1
 47 80  1
M  END
$$$$
