
  --CCDC--092525    3D                              

 76 82  0  0  0  0  0  0  0  0999 V2000
    1.5022   -1.9790   -7.3351 H      0
    0.9610   -2.0207   -6.3955 C      0
   -0.3763   -2.3373   -6.3763 C      0
   -0.8957   -2.5478   -7.3054 H      0
   -1.0625   -2.3883   -5.1751 C      0
   -2.1178   -2.6402   -5.1864 H      0
   -0.4451   -2.1260   -3.9469 C      0
   -1.5308   -2.2421   -2.4810 P      0
   -2.1173   -0.7766   -3.3771 C      0
   -3.4171   -0.7582   -3.8891 C      0
   -4.0526   -1.6285   -3.7691 H      0
   -3.9067    0.3498   -4.5602 C      0
   -4.9242    0.3472   -4.9369 H      0
   -3.1066    1.4534   -4.7546 C      0
   -3.4942    2.3229   -5.2751 H      0
   -1.8096    1.4451   -4.2920 C      0
   -1.1725    2.3076   -4.4573 H      0
   -1.3126    0.3405   -3.6204 C      0
   -0.2813    0.3464   -3.2925 H      0
   -1.0565   -3.9721   -2.7294 C      0
   -1.6561   -4.9574   -3.5148 C      0
   -2.6159   -4.7750   -3.9867 H      0
   -0.9997   -6.1645   -3.7031 C      0
   -1.4633   -6.9376   -4.3069 H      0
    0.2439   -6.3891   -3.1457 C      0
    0.7526   -7.3299   -3.3284 H      0
    0.8457   -5.4264   -2.3508 C      0
    1.8218   -5.6054   -1.9121 H      0
    0.1677   -4.2347   -2.1057 C      0
    0.5256   -3.0320   -1.2544 C      0
    1.6794   -2.5237   -0.9413 N      0
    1.2237   -1.2510   -0.5558 C      0
    1.5575   -0.0651   -1.2129 C      0
    2.4306   -0.0217   -1.8554 H      0
    0.7059    1.0455   -1.1019 C      0
    0.9861    1.9532   -1.6261 H      0
   -0.5054    1.0409   -0.4076 C      0
   -1.1736    1.8946   -0.4495 H      0
   -0.8011   -0.0503    0.3848 C      0
   -1.5533   -0.0693    1.1579 H      0
    0.2944   -0.7877    0.3289 C      0
    0.0992   -1.4096    1.1159 H      0
   -0.7974   -2.0708   -0.2567 Co     0
   -1.2169   -4.0920    0.8353 P      0
   -1.4897   -4.0270    2.6263 C      0
   -2.5162   -3.8223    2.9036 H      0
   -0.8539   -3.2715    3.0832 H      0
   -1.2316   -4.9859    3.0707 H      0
    0.4947   -4.6341    1.0877 C      0
    0.9267   -5.1250    0.2217 H      0
    0.5313   -5.3569    1.9001 H      0
    1.1291   -3.7948    1.3649 H      0
   -2.7936   -4.7433    0.2369 C      0
   -2.9346   -5.7678    0.5750 H      0
   -2.8339   -4.7361   -0.8503 H      0
   -3.6191   -4.1562    0.6218 H      0
   -3.0670   -1.4518   -0.0675 P      0
   -3.3823   -1.6874    1.6958 C      0
   -3.8760   -2.6376    1.8724 H      0
   -4.0458   -0.9089    2.0665 H      0
   -2.4601   -1.6495    2.2718 H      0
   -3.3412    0.2459   -0.6557 C      0
   -2.6880    0.5446   -1.4615 H      0
   -3.1940    0.9568    0.1547 H      0
   -4.3686    0.3620   -0.9944 H      0
   -4.5960   -2.0610   -0.8245 C      0
   -4.5377   -1.9979   -1.9071 H      0
   -5.4429   -1.4588   -0.5023 H      0
   -4.8082   -3.0937   -0.5665 H      0
    0.9198   -1.8093   -4.0060 C      0
    1.4771   -1.5982   -3.1102 H      0
    1.6048   -1.7578   -5.2092 C      0
    2.6606   -1.5080   -5.2155 H      0
   -2.8419   -2.7128   -2.6338 H      0
   -0.9669   -5.2741    0.1281 H      0
   -2.9094   -2.5744   -0.8670 H      0
  1  2  1
  2  3  4
  3  4  1
  3  5  4
  5  6  1
  5  7  4
  7  8  1
  8  9  1
  9 10  4
 10 11  1
 10 12  4
 12 13  1
 12 14  4
 14 15  1
 14 16  4
 16 17  1
 16 18  4
  9 18  4
 18 19  1
  8 20  1
 20 21  4
 21 22  1
 21 23  4
 23 24  1
 23 25  4
 25 26  1
 25 27  4
 27 28  1
 27 29  4
 20 29  4
 29 30  1
 30 31  2
 31 32  1
 32 33  4
 33 34  1
 33 35  4
 35 36  1
 35 37  4
 37 38  1
 37 39  4
 39 40  1
 39 41  4
 32 41  4
 41 42  1
 42 43  1
 30 43  1
 41 43  1
  8 43  1
 43 44  1
 44 45  1
 45 46  1
 45 47  1
 45 48  1
 44 49  1
 49 50  1
 49 51  1
 49 52  1
 44 53  1
 53 54  1
 53 55  1
 53 56  1
 43 57  1
 57 58  1
 58 59  1
 58 60  1
 58 61  1
 57 62  1
 62 63  1
 62 64  1
 62 65  1
 57 66  1
 66 67  1
 66 68  1
 66 69  1
  7 70  4
 70 71  1
 70 72  4
  2 72  4
 72 73  1
  8 74  1
 44 75  1
 57 76  1
M  END
$$$$
