
 OpenBabel09252517513D

 48 56  0  0  1  0  0  0  0  0999 V2000
    1.0301    0.0122    0.0946 H   0  0  0  0  0  0  0  0  0  0  0  0
    2.1001    0.0122    0.0946 C   0  0  0  0  0  3  0  0  0  0  0  0
    2.6067   -0.7650   -1.1095 C   0  0  0  0  0  3  0  0  0  0  0  0
    3.6767   -0.7650   -1.1095 H   0  0  0  0  0  0  0  0  0  0  0  0
    2.1001   -2.1963   -1.0384 C   0  0  0  0  0  3  0  0  0  0  0  0
    2.5986   -2.9144   -2.2753 C   0  0  0  0  0  3  0  0  0  0  0  0
    4.0633   -3.2974   -2.0202 C   0  0  0  0  0  3  0  0  0  0  0  0
    4.8715   -2.0479   -1.7107 C   0  0  0  0  0  3  0  0  0  0  0  0
    4.4721   -1.5714   -0.8399 H   0  0  0  0  0  0  0  0  0  0  0  0
    6.3207   -2.4312   -1.4589 C   0  0  0  0  0  3  0  0  0  0  0  0
    6.7200   -2.9077   -2.3298 H   0  0  0  0  0  0  0  0  0  0  0  0
    7.1289   -1.1817   -1.1494 C   0  0  0  0  0  3  0  0  0  0  0  0
    8.0062   -0.9215   -1.7039 H   0  0  0  0  0  0  0  0  0  0  0  0
    2.5033   -1.9972   -3.4836 C   0  0  0  0  0  3  0  0  0  0  0  0
    2.6067   -0.6420    1.3696 C   0  0  0  0  0  3  0  0  0  0  0  0
    3.5071   -0.3250    1.8532 H   0  0  0  0  0  0  0  0  0  0  0  0
    4.1227   -4.2570   -0.8283 Ir  0  0  0  0  0  0  0  0  0  0  0  0
    1.8888   -4.1358   -1.7771 Cl  0  0  0  0  0  0  0  0  0  0  0  0
    3.4239   -3.6746    0.3653 C   0  0  0  0  0  0  0  0  0  0  0  0
    3.0747   -3.3834    1.3338 H   0  0  0  0  0  0  0  0  0  0  0  0
    3.8743   -4.2166   -0.4399 H   0  0  0  0  0  0  0  0  0  0  0  0
    2.4947   -2.7386    0.2753 C   0  0  1  0  0  0  0  0  0  0  0  0
    2.7180   -1.9802    0.9963 H   0  0  0  0  0  0  0  0  0  0  0  0
    5.5981   -6.6261   -1.8604 C   0  0  2  0  0  0  0  0  0  0  0  0
    6.3385   -7.9433   -2.0251 C   0  0  0  0  0  0  0  0  0  0  0  0
    6.7822   -8.2226   -1.0924 H   0  0  0  0  0  0  0  0  0  0  0  0
    5.6507   -8.7023   -2.3343 H   0  0  0  0  0  0  0  0  0  0  0  0
    7.1035   -7.8324   -2.7650 H   0  0  0  0  0  0  0  0  0  0  0  0
    4.1318   -6.4264   -2.2556 C   0  0  2  0  0  0  0  0  0  0  0  0
    3.7495   -7.3787   -3.3769 C   0  0  0  0  0  0  0  0  0  0  0  0
    3.7811   -6.8599   -4.3121 H   0  0  0  0  0  0  0  0  0  0  0  0
    4.4382   -8.1973   -3.3997 H   0  0  0  0  0  0  0  0  0  0  0  0
    2.7602   -7.7496   -3.2079 H   0  0  0  0  0  0  0  0  0  0  0  0
    3.4630   -5.5653   -1.2078 C   0  0  2  0  0  0  0  0  0  0  0  0
    2.0604   -6.1388   -1.0888 C   0  0  0  0  0  0  0  0  0  0  0  0
    2.0674   -7.1639   -1.3954 H   0  0  0  0  0  0  0  0  0  0  0  0
    1.7332   -6.0729   -0.0722 H   0  0  0  0  0  0  0  0  0  0  0  0
    1.3934   -5.5838   -1.7149 H   0  0  0  0  0  0  0  0  0  0  0  0
    5.5888   -4.5379   -0.4793 C   0  0  2  0  0  0  0  0  0  0  0  0
    6.6296   -4.0050    0.4919 C   0  0  0  0  0  0  0  0  0  0  0  0
    7.3034   -4.7919    0.7597 H   0  0  0  0  0  0  0  0  0  0  0  0
    7.1758   -3.2101    0.0285 H   0  0  0  0  0  0  0  0  0  0  0  0
    6.1425   -3.6379    1.3709 H   0  0  0  0  0  0  0  0  0  0  0  0
    6.2575   -5.2619   -1.6484 C   0  0  2  0  0  0  0  0  0  0  0  0
    7.5871   -5.2498   -2.3848 C   0  0  0  0  0  0  0  0  0  0  0  0
    7.5617   -4.5066   -3.1543 H   0  0  0  0  0  0  0  0  0  0  0  0
    8.3741   -5.0234   -1.6962 H   0  0  0  0  0  0  0  0  0  0  0  0
    7.7614   -6.2105   -2.8225 H   0  0  0  0  0  0  0  0  0  0  0  0
  1  2  1  0  0  0  0
  2  3  1  0  0  0  0
  2 15  1  0  0  0  0
  3  5  1  0  0  0  0
  3  4  1  0  0  0  0
  5  6  1  0  0  0  0
  5 22  1  0  0  0  0
  6  7  1  0  0  0  0
  6 14  1  0  0  0  0
  7  8  1  0  0  0  0
  7 17  1  0  0  0  0
  8 10  1  0  0  0  0
  8  9  1  0  0  0  0
 10 12  1  0  0  0  0
 10 11  1  0  0  0  0
 12 14  1  0  0  0  0
 12 13  1  0  0  0  0
 14 15  1  0  0  0  0
 15 16  1  0  0  0  0
 17 19  1  0  0  0  0
 17 22  1  0  0  0  0
 17 24  1  0  0  0  0
 17 29  1  0  0  0  0
 17 34  1  0  0  0  0
 17 39  1  0  0  0  0
 17 44  1  0  0  0  0
 17 18  1  0  0  0  0
 19 22  2  0  0  0  0
 19 20  1  0  0  0  0
 19 21  1  0  0  0  0
 22 23  1  6  0  0  0
 24 29  1  0  0  0  0
 24 44  1  0  0  0  0
 24 25  1  6  0  0  0
 25 26  1  0  0  0  0
 25 27  1  0  0  0  0
 25 28  1  0  0  0  0
 29 34  1  0  0  0  0
 29 30  1  6  0  0  0
 30 31  1  0  0  0  0
 30 32  1  0  0  0  0
 30 33  1  0  0  0  0
 34 39  1  0  0  0  0
 34 35  1  1  0  0  0
 35 36  1  0  0  0  0
 35 37  1  0  0  0  0
 35 38  1  0  0  0  0
 39 44  1  0  0  0  0
 39 40  1  1  0  0  0
 40 41  1  0  0  0  0
 40 42  1  0  0  0  0
 40 43  1  0  0  0  0
 44 45  1  6  0  0  0
 45 46  1  0  0  0  0
 45 47  1  0  0  0  0
 45 48  1  0  0  0  0
M  END
$$$$
