
  --CCDC--092525    3D                              

 19 24  0  0  0  0  0  0  0  0999 V2000
   -0.0910    0.1008   -0.0633 H      0
   -1.6323    0.3923   -0.0235 Si     0
   -3.0678   -0.9600   -0.6404 Cl     0
   -3.4684    1.1069   -0.6487 Cl     0
   -3.2341    0.0762    1.2436 Cl     0
    0.6339    1.8788    0.0524 Mn     0
    1.3398    0.9449   -1.9130 C      0
    1.6914    0.4798   -2.8920 O      0
   -0.4538    2.4498   -1.8810 C      0
   -0.9916    2.7017   -2.8530 O      0
    2.3455    2.7264    1.4992 C      0
    1.1531    3.6703    1.5608 C      0
    0.0096    3.5937    1.0487 C      0
    1.6245    3.0544    1.2613 C      0
    2.5540    4.2718    0.8945 C      0
    2.5037    1.6149    0.9226 C      0
    3.3930    4.0032    0.2358 H      0
    3.0206    4.8228    1.7396 H      0
    2.0459    5.0482    0.2999 H      0
  1  2  1
  2  3  1
  2  4  1
  2  5  1
  2  6  1
  1  6  1
  6  7  1
  7  8  3
  6  9  1
  9 10  3
  6 11  1
 11 12  4
  6 12  1
 12 13  4
  6 13  1
 13 14  4
  6 14  1
 14 15  1
 14 16  4
  6 16  1
 11 16  4
 15 17  1
 15 18  1
 15 19  1
M  END
$$$$
