
 OpenBabel09252515213D

 57 60  0  0  0  0  0  0  0  0999 V2000
    0.7573   -0.3007   -0.0218 C   0  0  0  0  0  0  0  0  0  0  0  0
    0.4968   -0.8633   -1.3075 O   0  0  0  0  0  0  0  0  0  0  0  0
    0.7789    0.0278   -2.3133 C   0  0  0  0  0  0  0  0  0  0  0  0
    2.0817    0.5035   -2.4987 C   0  0  0  0  0  0  0  0  0  0  0  0
    2.3559    1.4085   -3.5252 C   0  0  0  0  0  0  0  0  0  0  0  0
    1.3330    1.8333   -4.3709 C   0  0  0  0  0  0  0  0  0  0  0  0
    0.0378    1.3404   -4.2008 C   0  0  0  0  0  0  0  0  0  0  0  0
   -0.2428    0.4191   -3.1869 C   0  0  0  0  0  0  0  0  0  0  0  0
   -1.5843   -0.0592   -3.0326 C   0  0  0  0  0  0  0  0  0  0  0  0
   -2.8202   -0.4211   -2.8285 C   0  0  0  0  0  0  0  0  0  0  0  0
   -4.2609   -0.8430   -2.5906 C   0  0  0  0  0  0  0  0  0  0  0  0
   -5.0312   -1.3641   -3.5785 C   0  0  0  0  0  0  0  0  0  0  0  0
   -4.6569   -1.1577   -4.9677 N   0  0  0  0  0  0  0  0  0  0  0  0
   -3.3763   -1.0884   -5.5816 C   0  0  0  0  0  0  0  0  0  0  0  0
   -2.4640   -2.1416   -5.4780 C   0  0  0  0  0  0  0  0  0  0  0  0
   -1.2346   -2.0673   -6.1400 C   0  0  0  0  0  0  0  0  0  0  0  0
   -0.9313   -0.9621   -6.9368 C   0  0  0  0  0  0  0  0  0  0  0  0
   -1.8560    0.0708   -7.0767 C   0  0  0  0  0  0  0  0  0  0  0  0
   -3.0744    0.0080   -6.3995 C   0  0  0  0  0  0  0  0  0  0  0  0
   -5.9950   -1.3409   -5.9982 S   0  0  0  0  0  0  0  0  0  0  0  0
   -6.4537   -0.0436   -6.4471 O   0  0  0  0  0  0  0  0  0  0  0  0
   -5.7964   -2.4589   -6.8957 O   0  0  0  0  0  0  0  0  0  0  0  0
   -7.0653   -1.8762   -4.7337 C   0  0  0  0  0  0  0  0  0  0  0  0
   -8.3494   -2.3544   -4.9612 C   0  0  0  0  0  0  0  0  0  0  0  0
   -9.0086   -2.9490   -3.8937 C   0  0  0  0  0  0  0  0  0  0  0  0
   -8.3447   -3.1101   -2.6718 C   0  0  0  0  0  0  0  0  0  0  0  0
   -7.0327   -2.6389   -2.4944 C   0  0  0  0  0  0  0  0  0  0  0  0
   -6.4002   -1.9349   -3.5102 C   0  0  0  0  0  0  0  0  0  0  0  0
   -4.6271   -0.4907   -0.7628 Si  0  0  0  0  0  0  0  0  0  0  0  0
   -3.6051   -1.6824    0.2910 C   0  0  0  0  0  0  0  0  0  0  0  0
   -3.9874    1.2675   -0.3579 C   0  0  0  0  0  0  0  0  0  0  0  0
   -6.4046   -0.5136   -0.1924 C   0  0  0  0  0  0  0  0  0  0  0  0
    0.2393   -0.9127    0.7226 H   0  0  0  0  0  0  0  0  0  0  0  0
    0.3753    0.7238    0.0604 H   0  0  0  0  0  0  0  0  0  0  0  0
    1.8277   -0.3301    0.2052 H   0  0  0  0  0  0  0  0  0  0  0  0
    2.8890    0.1661   -1.8559 H   0  0  0  0  0  0  0  0  0  0  0  0
    3.3674    1.7809   -3.6661 H   0  0  0  0  0  0  0  0  0  0  0  0
    1.5421    2.5433   -5.1669 H   0  0  0  0  0  0  0  0  0  0  0  0
   -0.7539    1.6795   -4.8639 H   0  0  0  0  0  0  0  0  0  0  0  0
   -2.6948   -3.0120   -4.8717 H   0  0  0  0  0  0  0  0  0  0  0  0
   -0.5110   -2.8710   -6.0324 H   0  0  0  0  0  0  0  0  0  0  0  0
    0.0269   -0.9058   -7.4472 H   0  0  0  0  0  0  0  0  0  0  0  0
   -1.6279    0.9283   -7.7042 H   0  0  0  0  0  0  0  0  0  0  0  0
   -3.7877    0.8216   -6.5097 H   0  0  0  0  0  0  0  0  0  0  0  0
   -8.8047   -2.2924   -5.9451 H   0  0  0  0  0  0  0  0  0  0  0  0
  -10.0175   -3.3344   -4.0219 H   0  0  0  0  0  0  0  0  0  0  0  0
   -8.8435   -3.6325   -1.8576 H   0  0  0  0  0  0  0  0  0  0  0  0
   -6.5217   -2.8742   -1.5684 H   0  0  0  0  0  0  0  0  0  0  0  0
   -2.5356   -1.5233    0.1232 H   0  0  0  0  0  0  0  0  0  0  0  0
   -3.8126   -1.5242    1.3532 H   0  0  0  0  0  0  0  0  0  0  0  0
   -3.8455   -2.7194    0.0399 H   0  0  0  0  0  0  0  0  0  0  0  0
   -4.4944    2.0003   -0.9927 H   0  0  0  0  0  0  0  0  0  0  0  0
   -4.2012    1.5043    0.6885 H   0  0  0  0  0  0  0  0  0  0  0  0
   -2.9087    1.3416   -0.5167 H   0  0  0  0  0  0  0  0  0  0  0  0
   -7.0831   -0.1324   -0.9602 H   0  0  0  0  0  0  0  0  0  0  0  0
   -6.7247   -1.5143    0.1083 H   0  0  0  0  0  0  0  0  0  0  0  0
   -6.5207    0.1235    0.6908 H   0  0  0  0  0  0  0  0  0  0  0  0
  1  2  1  0  0  0  0
  1 33  1  0  0  0  0
  1 34  1  0  0  0  0
  1 35  1  0  0  0  0
  2  3  1  0  0  0  0
  3  4  1  0  0  0  0
  3  8  2  0  0  0  0
  4  5  2  0  0  0  0
  4 36  1  0  0  0  0
  5  6  1  0  0  0  0
  5 37  1  0  0  0  0
  6  7  2  0  0  0  0
  6 38  1  0  0  0  0
  7  8  1  0  0  0  0
  7 39  1  0  0  0  0
  8  9  1  0  0  0  0
  9 10  3  0  0  0  0
 10 11  1  0  0  0  0
 11 12  2  0  0  0  0
 11 29  1  0  0  0  0
 12 13  1  0  0  0  0
 12 28  1  0  0  0  0
 13 14  1  0  0  0  0
 13 20  1  0  0  0  0
 14 15  1  0  0  0  0
 14 19  2  0  0  0  0
 15 16  2  0  0  0  0
 15 40  1  0  0  0  0
 16 17  1  0  0  0  0
 16 41  1  0  0  0  0
 17 18  2  0  0  0  0
 17 42  1  0  0  0  0
 18 19  1  0  0  0  0
 18 43  1  0  0  0  0
 19 44  1  0  0  0  0
 20 21  2  0  0  0  0
 20 22  2  0  0  0  0
 20 23  1  0  0  0  0
 23 24  1  0  0  0  0
 23 28  2  0  0  0  0
 24 25  2  0  0  0  0
 24 45  1  0  0  0  0
 25 26  1  0  0  0  0
 25 46  1  0  0  0  0
 26 27  2  0  0  0  0
 26 47  1  0  0  0  0
 27 28  1  0  0  0  0
 27 48  1  0  0  0  0
 29 30  1  0  0  0  0
 29 31  1  0  0  0  0
 29 32  1  0  0  0  0
 30 49  1  0  0  0  0
 30 50  1  0  0  0  0
 30 51  1  0  0  0  0
 31 52  1  0  0  0  0
 31 53  1  0  0  0  0
 31 54  1  0  0  0  0
 32 55  1  0  0  0  0
 32 56  1  0  0  0  0
 32 57  1  0  0  0  0
M  END
$$$$
