
 OpenBabel09252516253D

 36 38  0  0  1  0  0  0  0  0999 V2000
    1.0822   -0.0167    0.0545 H   0  0  0  0  0  0  0  0  0  0  0  0
    2.1522   -0.0167    0.0545 C   0  0  0  0  0  0  0  0  0  0  0  0
    2.6872   -0.6259    0.7527 H   0  0  0  0  0  0  0  0  0  0  0  0
    2.8324    0.7579   -0.8333 C   0  0  0  0  0  0  0  0  0  0  0  0
    2.2974    1.3671   -1.5315 H   0  0  0  0  0  0  0  0  0  0  0  0
    4.3524    0.7579   -0.8333 C   0  0  1  0  0  0  0  0  0  0  0  0
    4.7090    1.0846    0.1212 H   0  0  0  0  0  0  0  0  0  0  0  0
    4.8590   -0.6484   -1.1093 C   0  0  0  0  0  0  0  0  0  0  0  0
    4.5024   -0.9751   -2.0637 H   0  0  0  0  0  0  0  0  0  0  0  0
    5.9290   -0.6484   -1.1093 H   0  0  0  0  0  0  0  0  0  0  0  0
    4.5024   -1.3116   -0.3491 H   0  0  0  0  0  0  0  0  0  0  0  0
    4.8590    1.7000   -1.9131 C   0  0  1  0  0  0  0  0  0  0  0  0
    4.5024    1.3733   -2.8675 H   0  0  0  0  0  0  0  0  0  0  0  0
    4.3690    3.0600   -1.6462 N   0  0  0  0  0  0  0  0  0  0  0  0
    3.1195    3.2879   -1.6015 N   0  0  0  0  0  4  0  0  0  0  0  0
    1.8700    3.5157   -1.5567 N   0  0  0  0  0  0  0  0  0  0  0  0
    6.3790    1.7000   -1.9131 C   0  0  2  0  0  0  0  0  0  0  0  0
    7.2886    2.2604   -1.8528 H   0  0  0  0  0  0  0  0  0  0  0  0
    7.1495    0.9890   -2.7193 C   0  0  1  0  0  0  0  0  0  0  0  0
    6.5228    0.4571   -2.0343 H   0  0  0  0  0  0  0  0  0  0  0  0
    8.5481    1.3213   -2.3430 C   0  0  1  0  0  0  0  0  0  0  0  0
    9.5244    1.2844   -1.9067 H   0  0  0  0  0  0  0  0  0  0  0  0
    8.4591    2.1983   -1.3571 C   0  0  2  0  0  0  0  0  0  0  0  0
    8.2861    2.9384   -2.1103 H   0  0  0  0  0  0  0  0  0  0  0  0
    9.6321    2.8462   -0.6397 C   0  0  0  0  0  0  0  0  0  0  0  0
    9.5815    3.9082   -0.7603 H   0  0  0  0  0  0  0  0  0  0  0  0
    9.5917    2.6031    0.4015 H   0  0  0  0  0  0  0  0  0  0  0  0
   10.5489    2.4834   -1.0554 H   0  0  0  0  0  0  0  0  0  0  0  0
    7.1613    2.4219   -1.0945 Fe  0  0  0  0  0  0  0  0  0  0  0  0
    8.7474    1.0939   -0.8775 C   0  0  0  0  0  0  0  0  0  0  0  0
    9.6762    0.3162   -0.7504 O   0  0  0  0  0  0  0  0  0  0  0  0
    8.5220    2.7018   -2.6426 C   0  0  0  0  0  0  0  0  0  0  0  0
    9.3189    2.8658   -3.5492 O   0  0  0  0  0  0  0  0  0  0  0  0
    8.8462    1.3311   -0.5489 C   0  0  0  0  0  0  0  0  0  0  0  0
    9.8329    0.6922   -0.2294 O   0  0  0  0  0  0  0  0  0  0  0  0
    1.2365    2.8119   -1.1777 H   0  0  0  0  0  0  0  0  0  0  0  0
  1  2  1  0  0  0  0
  2  3  1  0  0  0  0
  2  4  2  0  0  0  0
  4  5  1  0  0  0  0
  4  6  1  0  0  0  0
  6  7  1  1  0  0  0
  6  8  1  0  0  0  0
  6 12  1  0  0  0  0
  8  9  1  0  0  0  0
  8 10  1  0  0  0  0
  8 11  1  0  0  0  0
 12 13  1  6  0  0  0
 12 14  1  0  0  0  0
 12 17  1  0  0  0  0
 14 15  2  0  0  0  0
 15 16  2  0  0  0  0
 16 36  1  0  0  0  0
 17 18  1  6  0  0  0
 17 19  2  0  0  0  0
 17 29  1  0  0  0  0
 19 20  1  1  0  0  0
 19 21  1  0  0  0  0
 19 29  1  0  0  0  0
 21 22  1  1  0  0  0
 21 23  2  0  0  0  0
 21 29  1  0  0  0  0
 23 24  1  6  0  0  0
 23 25  1  0  0  0  0
 23 29  1  0  0  0  0
 25 26  1  0  0  0  0
 25 27  1  0  0  0  0
 25 28  1  0  0  0  0
 29 30  1  0  0  0  0
 29 32  1  0  0  0  0
 29 34  1  0  0  0  0
 30 31  3  0  0  0  0
 32 33  3  0  0  0  0
 34 35  3  0  0  0  0
M  END
$$$$
