
     RDKit          3D

 29 30  0  0  0  0  0  0  0  0999 V2000
   -1.8146    0.8083    0.9606 C   0  0  0  0  0  0  0  0  0  0  0  0
   -1.3008   -0.3598    0.3053 N   0  0  0  0  0  0  0  0  0  0  0  0
    0.0080   -0.7353    0.7707 C   0  0  0  0  0  0  0  0  0  0  0  0
    0.0875   -1.8126    2.4997 Au  0  0  0  0  0  3  0  0  0  0  0  0
    1.5375   -2.4839    3.4270 Cl  0  0  0  0  0  0  0  0  0  0  0  0
    1.1307   -0.3138   -0.0295 N   0  0  0  0  0  0  0  0  0  0  0  0
    1.6225    1.0312    0.1124 C   0  0  0  0  0  0  0  0  0  0  0  0
    3.1127    0.9118   -0.1718 C   0  0  0  0  0  0  0  0  0  0  0  0
    3.3122   -0.4802   -0.7010 C   0  0  0  0  0  0  0  0  0  0  0  0
    1.9296   -1.0132   -1.0232 C   0  0  0  0  0  0  0  0  0  0  0  0
   -2.1948   -0.9146   -0.6787 C   0  0  0  0  0  0  0  0  0  0  0  0
   -3.1890    0.1785   -0.9158 C   0  0  0  0  0  0  0  0  0  0  0  0
   -3.1653    1.0476    0.3226 C   0  0  0  0  0  0  0  0  0  0  0  0
   -1.1244    1.6689    0.7724 H   0  0  0  0  0  0  0  0  0  0  0  0
   -1.9114    0.5910    2.0453 H   0  0  0  0  0  0  0  0  0  0  0  0
    1.4333    1.4904    1.1003 H   0  0  0  0  0  0  0  0  0  0  0  0
    1.1112    1.6421   -0.6608 H   0  0  0  0  0  0  0  0  0  0  0  0
    3.4374    1.6915   -0.8599 H   0  0  0  0  0  0  0  0  0  0  0  0
    3.6640    1.0850    0.7907 H   0  0  0  0  0  0  0  0  0  0  0  0
    3.9173   -0.5054   -1.6286 H   0  0  0  0  0  0  0  0  0  0  0  0
    3.7271   -1.1039    0.1037 H   0  0  0  0  0  0  0  0  0  0  0  0
    1.6041   -0.7289   -2.0440 H   0  0  0  0  0  0  0  0  0  0  0  0
    1.8505   -2.1054   -0.8581 H   0  0  0  0  0  0  0  0  0  0  0  0
   -2.7053   -1.8134   -0.2279 H   0  0  0  0  0  0  0  0  0  0  0  0
   -1.6453   -1.2076   -1.6064 H   0  0  0  0  0  0  0  0  0  0  0  0
   -2.9698    0.8131   -1.8009 H   0  0  0  0  0  0  0  0  0  0  0  0
   -4.1985   -0.3063   -1.0148 H   0  0  0  0  0  0  0  0  0  0  0  0
   -4.0052    0.8048    0.9796 H   0  0  0  0  0  0  0  0  0  0  0  0
   -3.2610    2.1200    0.0311 H   0  0  0  0  0  0  0  0  0  0  0  0
  1  2  1  0
  2  3  1  0
  3  4  2  3
  4  5  1  0
  3  6  1  0
  6  7  1  0
  7  8  1  0
  8  9  1  0
  9 10  1  0
  2 11  1  0
 11 12  1  0
 12 13  1  0
 13  1  1  0
 10  6  1  0
  1 14  1  0
  1 15  1  0
  7 16  1  0
  7 17  1  0
  8 18  1  0
  8 19  1  0
  9 20  1  0
  9 21  1  0
 10 22  1  0
 10 23  1  0
 11 24  1  0
 11 25  1  0
 12 26  1  0
 12 27  1  0
 13 28  1  0
 13 29  1  0
M  END
