
     RDKit          3D

  0  0  0  0  0  0  0  0  0  0999 V3000
M  V30 BEGIN CTAB
M  V30 COUNTS 80 84 0 0 0
M  V30 BEGIN ATOM
M  V30 1 C 1.594115 0.746820 0.784317 0
M  V30 2 Ru 0.943895 0.311895 -0.755527 0 VAL=6
M  V30 3 Cl 0.716841 2.075005 -1.440439 0
M  V30 4 Cl 1.101461 -1.605840 -0.347423 0
M  V30 5 C -0.841552 0.188895 -0.339885 0
M  V30 6 N -1.236279 -0.860147 0.532626 0
M  V30 7 C -1.558503 -2.242750 0.442845 0
M  V30 8 C -1.790144 -2.891782 -0.778249 0
M  V30 9 C -1.832162 -2.201189 -2.058306 0
M  V30 10 C -2.026748 -4.273559 -0.794383 0
M  V30 11 C -2.048319 -5.052907 0.333442 0
M  V30 12 C -2.302627 -6.498042 0.269933 0
M  V30 13 C -1.818849 -4.398201 1.519751 0
M  V30 14 C -1.573047 -3.020317 1.617673 0
M  V30 15 C -1.301439 -2.581711 3.001881 0
M  V30 16 C -1.375754 -0.027667 1.713197 0
M  V30 17 C -2.275076 1.078126 1.103627 0
M  V30 18 N -1.420762 1.453270 0.048207 0
M  V30 19 C -1.531685 2.809840 -0.199465 0
M  V30 20 C -2.444530 3.077544 -1.234275 0
M  V30 21 C -3.206946 2.100325 -2.032059 0
M  V30 22 C -2.692037 4.412704 -1.586007 0
M  V30 23 C -2.057016 5.443713 -0.934258 0
M  V30 24 C -2.331287 6.852951 -1.319119 0
M  V30 25 C -1.178301 5.180191 0.063220 0
M  V30 26 C -0.932092 3.874224 0.412694 0
M  V30 27 C -0.003692 3.667031 1.533902 0
M  V30 28 N 2.613141 0.285365 -1.492961 0
M  V30 29 C 2.620717 -0.384390 -2.801132 0
M  V30 30 C 2.952457 1.680079 -1.820104 0
M  V30 31 C 3.639120 -0.265381 -0.710660 0 CFG=2
M  V30 32 C 4.576770 -1.207729 -1.480789 0
M  V30 33 C 3.318544 -0.793171 0.619078 0
M  V30 34 C 4.128400 -1.850415 1.063685 0
M  V30 35 C 3.973893 -2.420686 2.319744 0
M  V30 36 C 2.987113 -1.930166 3.164635 0
M  V30 37 C 2.221951 -0.905739 2.698652 0
M  V30 38 C 2.341533 -0.319333 1.470568 0
M  V30 39 H 1.767359 1.450630 1.585356 0
M  V30 40 H -1.385006 0.070428 -1.345426 0
M  V30 41 H -2.737503 -1.525923 -2.172463 0
M  V30 42 H -0.910618 -1.827512 -2.486720 0
M  V30 43 H -2.121661 -2.984298 -2.841790 0
M  V30 44 H -2.211749 -4.823537 -1.731735 0
M  V30 45 H -1.368890 -7.085149 0.345357 0
M  V30 46 H -3.023258 -6.750786 1.094854 0
M  V30 47 H -2.781462 -6.764678 -0.680824 0
M  V30 48 H -1.844128 -5.043856 2.393655 0
M  V30 49 H -0.477294 -1.844383 3.097892 0
M  V30 50 H -2.192737 -2.385029 3.613053 0
M  V30 51 H -0.837254 -3.484343 3.540330 0
M  V30 52 H -0.448793 0.335203 2.105692 0
M  V30 53 H -2.033086 -0.372735 2.502402 0
M  V30 54 H -3.186524 0.518163 0.786809 0
M  V30 55 H -2.565825 1.794146 1.859380 0
M  V30 56 H -3.485453 1.175442 -1.486204 0
M  V30 57 H -2.776653 1.909160 -3.046992 0
M  V30 58 H -4.211872 2.558390 -2.278721 0
M  V30 59 H -3.388373 4.696502 -2.379752 0
M  V30 60 H -2.673990 6.853099 -2.372692 0
M  V30 61 H -3.231084 7.196160 -0.727764 0
M  V30 62 H -1.461706 7.525770 -1.165780 0
M  V30 63 H -0.688905 6.002778 0.564610 0
M  V30 64 H 1.014586 3.636752 1.101622 0
M  V30 65 H -0.002603 4.521627 2.248552 0
M  V30 66 H -0.173773 2.701126 2.049263 0
M  V30 67 H 3.285757 0.102142 -3.521474 0
M  V30 68 H 2.785078 -1.450519 -2.622177 0
M  V30 69 H 1.590774 -0.301882 -3.262410 0
M  V30 70 H 2.731698 2.298843 -0.917963 0
M  V30 71 H 4.063108 1.772174 -1.983147 0
M  V30 72 H 2.386051 2.019754 -2.708495 0
M  V30 73 H 4.349885 0.607888 -0.465975 0
M  V30 74 H 4.235244 -2.258814 -1.447875 0
M  V30 75 H 5.607370 -1.217539 -1.017089 0
M  V30 76 H 4.757832 -0.830155 -2.504856 0
M  V30 77 H 4.940496 -2.347474 0.529891 0
M  V30 78 H 4.564695 -3.233776 2.717460 0
M  V30 79 H 2.747725 -2.265784 4.163758 0
M  V30 80 H 1.441436 -0.454857 3.280021 0
M  V30 END ATOM
M  V30 BEGIN BOND
M  V30 1 2 1 2
M  V30 2 1 2 3
M  V30 3 1 2 4
M  V30 4 1 2 5
M  V30 5 1 5 6
M  V30 6 1 6 7
M  V30 7 2 7 8
M  V30 8 1 8 9
M  V30 9 1 8 10
M  V30 10 2 10 11
M  V30 11 1 11 12
M  V30 12 1 11 13
M  V30 13 2 13 14
M  V30 14 1 14 15
M  V30 15 1 6 16
M  V30 16 1 16 17
M  V30 17 1 17 18
M  V30 18 1 18 19
M  V30 19 2 19 20
M  V30 20 1 20 21
M  V30 21 1 20 22
M  V30 22 2 22 23
M  V30 23 1 23 24
M  V30 24 1 23 25
M  V30 25 2 25 26
M  V30 26 1 26 27
M  V30 27 9 28 2
M  V30 28 1 28 29
M  V30 29 1 28 30
M  V30 30 1 28 31
M  V30 31 1 31 32
M  V30 32 1 31 33
M  V30 33 2 33 34
M  V30 34 1 34 35
M  V30 35 2 35 36
M  V30 36 1 36 37
M  V30 37 2 37 38
M  V30 38 1 38 1
M  V30 39 1 18 5
M  V30 40 1 26 19
M  V30 41 1 38 33
M  V30 42 1 14 7
M  V30 43 1 1 39
M  V30 44 1 5 40
M  V30 45 1 9 41
M  V30 46 1 9 42
M  V30 47 1 9 43
M  V30 48 1 10 44
M  V30 49 1 12 45
M  V30 50 1 12 46
M  V30 51 1 12 47
M  V30 52 1 13 48
M  V30 53 1 15 49
M  V30 54 1 15 50
M  V30 55 1 15 51
M  V30 56 1 16 52
M  V30 57 1 16 53
M  V30 58 1 17 54
M  V30 59 1 17 55
M  V30 60 1 21 56
M  V30 61 1 21 57
M  V30 62 1 21 58
M  V30 63 1 22 59
M  V30 64 1 24 60
M  V30 65 1 24 61
M  V30 66 1 24 62
M  V30 67 1 25 63
M  V30 68 1 27 64
M  V30 69 1 27 65
M  V30 70 1 27 66
M  V30 71 1 29 67
M  V30 72 1 29 68
M  V30 73 1 29 69
M  V30 74 1 30 70
M  V30 75 1 30 71
M  V30 76 1 30 72
M  V30 77 1 31 73 CFG=1
M  V30 78 1 32 74
M  V30 79 1 32 75
M  V30 80 1 32 76
M  V30 81 1 34 77
M  V30 82 1 35 78
M  V30 83 1 36 79
M  V30 84 1 37 80
M  V30 END BOND
M  V30 END CTAB
M  END
