
  --CCDC--092525    3D                              

 80 84  0  0  0  0  0  0  0  0999 V2000
    2.4272   -1.0927   -4.2810 H      0
    1.8067   -1.3861   -3.4395 C      0
    1.5865   -0.5663   -2.5532 O      0
    0.4551   -0.0975   -3.2840 Cl     0
    2.7122   -1.0899   -1.8527 Cl     0
    2.1985    0.7420   -2.6478 C      0
    2.7471    1.0246   -3.9858 N      0
    2.0798    2.0139   -4.8226 C      0
    1.2893    1.5460   -5.8932 C      0
    1.0525    0.0948   -6.2285 C      0
    0.1981   -0.2988   -5.6836 H      0
    1.9229   -0.5064   -5.9741 H      0
    0.8584   -0.0264   -7.2921 H      0
    0.6195    2.4621   -6.6980 C      0
    0.0177    2.0890   -7.5201 H      0
    0.6781    3.8248   -6.4869 C      0
   -0.0850    4.7903   -7.3605 C      0
   -0.3683    5.6778   -6.7985 H      0
    0.5204    5.1048   -8.2080 H      0
   -0.9921    4.3286   -7.7447 H      0
    1.4519    4.2653   -5.4318 C      0
    1.5133    5.3324   -5.2453 H      0
    2.1699    3.4048   -4.6065 C      0
    3.0301    4.0904   -3.5808 C      0
    3.0870    3.5197   -2.6573 H      0
    2.6208    5.0692   -3.3394 H      0
    4.0316    4.2395   -3.9705 H      0
    4.2217    1.0117   -3.9141 C      0
    4.6512    1.7010   -4.6396 H      0
    4.6097    0.0097   -4.0914 H      0
    4.5181    1.4603   -2.5075 C      0
    4.5009    2.5457   -2.4211 H      0
    5.4794    1.0837   -2.1610 H      0
    3.3975    0.8401   -1.7776 N      0
    3.2377    1.1041   -0.3624 C      0
    4.0282    0.3552    0.5222 C      0
    5.0126   -0.6904    0.0643 C      0
    5.3665   -0.4933   -0.9439 H      0
    4.5539   -1.6769    0.0723 H      0
    5.8771   -0.7168    0.7244 H      0
    3.9002    0.5747    1.8903 C      0
    4.5029   -0.0152    2.5729 H      0
    3.0293    1.5139    2.4120 C      0
    2.9001    1.7192    3.9016 C      0
    3.8348    1.4831    4.4060 H      0
    2.6445    2.7523    4.1278 H      0
    2.1220    1.0797    4.3130 H      0
    2.3030    2.2783    1.5168 C      0
    1.6360    3.0414    1.9043 H      0
    2.4053    2.1172    0.1381 C      0
    1.6499    3.0863   -0.7280 C      0
    1.8757    2.9062   -1.7762 H      0
    1.9354    4.1099   -0.4947 H      0
    0.5763    2.9958   -0.5809 H      0
    0.8491   -0.7948   -1.4710 N      0
    1.7479   -1.0894   -0.4111 C      0
    2.8028   -1.0053   -0.6649 H      0
    1.5475   -2.0392    0.0898 H      0
    1.6443   -0.3487    0.3766 H      0
    0.1436    0.3915   -1.1357 C      0
    0.7376    1.0708   -0.5378 H      0
   -0.7274    0.1528   -0.5308 H      0
   -0.2441    0.9411   -1.9922 H      0
   -0.1551   -1.9521   -1.5549 C      0
   -1.1190   -1.5992   -1.9558 H      0
   -0.4076   -2.4839   -0.1553 C      0
   -1.4276   -2.8542   -0.0769 H      0
   -0.2828   -1.7071    0.5957 H      0
    0.2560   -3.3097    0.0911 H      0
    0.3578   -3.0714   -2.4233 C      0
   -0.0807   -4.3877   -2.3103 C      0
   -0.8044   -4.6589   -1.5431 H      0
    0.4078   -5.3522   -3.1790 C      0
    0.0663   -6.3827   -3.0928 H      0
    1.3256   -5.0112   -4.1526 C      0
    1.7050   -5.7737   -4.8312 H      0
    1.7661   -3.7012   -4.2697 C      0
    2.4899   -3.4374   -5.0393 H      0
    1.2808   -2.7175   -3.3989 C      0
    1.4768    1.5099   -2.3731 H      0
  1  2  1
  2  3  2
  3  4  1
  3  5  1
  3  6  1
  6  7  1
  7  8  1
  8  9  4
  9 10  1
 10 11  1
 10 12  1
 10 13  1
  9 14  4
 14 15  1
 14 16  4
 16 17  1
 17 18  1
 17 19  1
 17 20  1
 16 21  4
 21 22  1
 21 23  4
  8 23  4
 23 24  1
 24 25  1
 24 26  1
 24 27  1
  7 28  1
 28 29  1
 28 30  1
 28 31  1
 31 32  1
 31 33  1
 31 34  1
  6 34  1
 34 35  1
 35 36  4
 36 37  1
 37 38  1
 37 39  1
 37 40  1
 36 41  4
 41 42  1
 41 43  4
 43 44  1
 44 45  1
 44 46  1
 44 47  1
 43 48  4
 48 49  1
 48 50  4
 35 50  4
 50 51  1
 51 52  1
 51 53  1
 51 54  1
  3 55  1
 55 56  1
 56 57  1
 56 58  1
 56 59  1
 55 60  1
 60 61  1
 60 62  1
 60 63  1
 55 64  1
 64 65  1
 64 66  1
 66 67  1
 66 68  1
 66 69  1
 64 70  1
 70 71  4
 71 72  1
 71 73  4
 73 74  1
 73 75  4
 75 76  1
 75 77  4
 77 78  1
 77 79  4
 70 79  4
  2 79  1
  6 80  1
M  END
$$$$
