
     RDKit          3D

 29 30  0  0  0  0  0  0  0  0999 V2000
   -0.6061    4.3213   -0.6883 Cl  0  0  0  0  0  0  0  0  0  0  0  0
    0.1110    2.7816   -0.5176 Au  0  0  0  0  0  3  0  0  0  0  0  0
   -0.0156    0.8372   -0.4259 C   0  0  0  0  0  0  0  0  0  0  0  0
    1.2747    0.2667   -0.2397 N   0  0  0  0  0  0  0  0  0  0  0  0
    2.2078   -0.4238   -1.1164 C   0  0  0  0  0  0  0  0  0  0  0  0
    3.5326   -0.1269   -0.4144 C   0  0  0  0  0  0  0  0  0  0  0  0
    3.1075   -0.4014    1.0343 C   0  0  0  0  0  0  0  0  0  0  0  0
    1.8071    0.3755    1.0893 C   0  0  0  0  0  0  0  0  0  0  0  0
   -1.2678    0.2207   -0.5423 N   0  0  0  0  0  0  0  0  0  0  0  0
   -2.5106    0.8734   -0.1918 C   0  0  0  0  0  0  0  0  0  0  0  0
   -3.4929   -0.2394    0.0973 C   0  0  0  0  0  0  0  0  0  0  0  0
   -2.7880   -1.5347   -0.1466 C   0  0  0  0  0  0  0  0  0  0  0  0
   -1.6048   -1.1124   -1.0037 C   0  0  0  0  0  0  0  0  0  0  0  0
    2.1935   -0.0377   -2.1499 H   0  0  0  0  0  0  0  0  0  0  0  0
    2.0729   -1.5254   -1.0476 H   0  0  0  0  0  0  0  0  0  0  0  0
    3.7625    0.9426   -0.4729 H   0  0  0  0  0  0  0  0  0  0  0  0
    4.3353   -0.7922   -0.7364 H   0  0  0  0  0  0  0  0  0  0  0  0
    3.8340   -0.0111    1.7489 H   0  0  0  0  0  0  0  0  0  0  0  0
    2.8999   -1.4740    1.1609 H   0  0  0  0  0  0  0  0  0  0  0  0
    2.0945    1.4273    1.3540 H   0  0  0  0  0  0  0  0  0  0  0  0
    1.1174   -0.0514    1.8595 H   0  0  0  0  0  0  0  0  0  0  0  0
   -2.3985    1.5932    0.6430 H   0  0  0  0  0  0  0  0  0  0  0  0
   -2.8349    1.4559   -1.0991 H   0  0  0  0  0  0  0  0  0  0  0  0
   -3.8931   -0.1525    1.1427 H   0  0  0  0  0  0  0  0  0  0  0  0
   -4.3814   -0.0906   -0.5499 H   0  0  0  0  0  0  0  0  0  0  0  0
   -3.4221   -2.2688   -0.6525 H   0  0  0  0  0  0  0  0  0  0  0  0
   -2.4291   -2.0184    0.7961 H   0  0  0  0  0  0  0  0  0  0  0  0
   -1.9527   -1.0270   -2.0538 H   0  0  0  0  0  0  0  0  0  0  0  0
   -0.7530   -1.8076   -0.9068 H   0  0  0  0  0  0  0  0  0  0  0  0
  1  2  1  0
  2  3  2  3
  3  4  1  0
  4  5  1  0
  5  6  1  0
  6  7  1  0
  7  8  1  0
  3  9  1  0
  9 10  1  0
 10 11  1  0
 11 12  1  0
 12 13  1  0
  8  4  1  0
 13  9  1  0
  5 14  1  0
  5 15  1  0
  6 16  1  0
  6 17  1  0
  7 18  1  0
  7 19  1  0
  8 20  1  0
  8 21  1  0
 10 22  1  0
 10 23  1  0
 11 24  1  0
 11 25  1  0
 12 26  1  0
 12 27  1  0
 13 28  1  0
 13 29  1  0
M  END
