
     RDKit          3D

  0  0  0  0  0  0  0  0  0  0999 V3000
M  V30 BEGIN CTAB
M  V30 COUNTS 114 121 0 0 0
M  V30 BEGIN ATOM
M  V30 1 C 0.099716 0.313970 2.845329 0
M  V30 2 O -0.491846 -0.830164 2.262671 0
M  V30 3 C -0.683126 -1.822040 3.246582 0
M  V30 4 C 0.757490 -2.198815 3.307949 0
M  V30 5 O 1.027359 -2.187680 1.937672 0
M  V30 6 C 2.301847 -2.621827 1.914813 0
M  V30 7 Eu 0.013843 -1.439615 0.435330 0 VAL=7
M  V30 8 N -0.502939 -1.573003 -1.444295 0
M  V30 9 C -0.255815 -1.841328 -2.565324 0
M  V30 10 S -0.529997 -2.314776 -4.009393 0
M  V30 11 N -1.369350 0.065040 0.119772 0
M  V30 12 C -2.854721 0.283228 0.104893 0
M  V30 13 C -3.739737 0.599404 1.143875 0
M  V30 14 C -5.062802 0.832638 1.076081 0
M  V30 15 C -5.645836 0.765689 -0.158722 0
M  V30 16 C -4.852758 0.471108 -1.236550 0
M  V30 17 C -3.519199 0.240179 -1.138119 0
M  V30 18 C -3.056695 -0.052491 -2.516567 0
M  V30 19 C -3.894514 0.708889 -3.565886 0
M  V30 20 C -3.546789 -1.510358 -2.731703 0
M  V30 21 C -3.263400 0.800675 2.540338 0
M  V30 22 C -4.232981 1.832753 3.254904 0
M  V30 23 C -3.599208 -0.435382 3.338328 0
M  V30 24 C -0.617394 1.322143 -0.133329 0
M  V30 25 C 0.665393 1.244308 -0.239879 0
M  V30 26 N 1.324579 -0.064140 -0.119894 0
M  V30 27 C 2.761539 0.004528 -0.480816 0
M  V30 28 C 3.858507 -0.008565 0.354288 0
M  V30 29 C 5.179196 0.074784 0.021162 0
M  V30 30 C 5.479953 0.198829 -1.310368 0
M  V30 31 C 4.441917 0.232677 -2.212403 0
M  V30 32 C 3.106231 0.142885 -1.858723 0
M  V30 33 C 2.329663 0.199306 -3.094475 0
M  V30 34 C 3.018687 1.202323 -4.107111 0
M  V30 35 C 2.638340 -1.099702 -3.877077 0
M  V30 36 C 3.710073 0.238670 1.829840 0
M  V30 37 C 4.925424 -0.345480 2.508469 0
M  V30 38 C 3.937079 1.779474 2.036022 0
M  V30 39 C 1.113726 2.644862 -0.490615 0
M  V30 40 C 2.321864 3.263537 -0.690544 0
M  V30 41 C 2.442798 4.597322 -0.906058 0
M  V30 42 C 1.362663 5.491099 -0.950062 0
M  V30 43 C 0.133852 4.880093 -0.747492 0
M  V30 44 C -1.079392 5.572003 -0.753836 0
M  V30 45 C -2.232899 4.807766 -0.538810 0
M  V30 46 C -2.173376 3.478103 -0.335260 0
M  V30 47 C -1.005008 2.748541 -0.317279 0
M  V30 48 C 0.083178 3.531447 -0.534181 0
M  V30 49 O 0.727760 -3.183720 -0.166827 0
M  V30 50 C 1.853207 -3.255768 -0.996225 0
M  V30 51 C 0.118865 -4.431173 -0.461473 0
M  V30 52 C -0.963981 -4.291232 0.535936 0
M  V30 53 O -1.283577 -2.936328 0.341194 0
M  V30 54 C -2.540872 -2.876027 0.722136 0
M  V30 55 H -0.605897 0.659327 3.655464 0
M  V30 56 H 1.044262 0.080829 3.262432 0
M  V30 57 H 0.220309 1.146191 2.134888 0
M  V30 58 H -0.992661 -1.190859 4.093819 0
M  V30 59 H -1.366225 -2.599679 3.070252 0
M  V30 60 H 0.883683 -3.260528 3.697580 0
M  V30 61 H 1.360279 -1.498943 3.800476 0
M  V30 62 H 2.907887 -2.668399 1.051482 0
M  V30 63 H 2.880137 -2.321250 2.808818 0
M  V30 64 H 2.147732 -3.761810 2.157959 0
M  V30 65 H -5.698578 1.056652 1.897473 0
M  V30 66 H -6.701021 0.946738 -0.212267 0
M  V30 67 H -5.492400 0.450153 -2.134520 0
M  V30 68 H -2.033444 0.028828 -2.730836 0
M  V30 69 H -4.708041 0.066824 -3.888805 0
M  V30 70 H -3.214787 0.930427 -4.424808 0
M  V30 71 H -4.300849 1.635119 -3.132229 0
M  V30 72 H -3.385171 -1.759089 -3.777595 0
M  V30 73 H -3.057232 -2.178345 -2.029246 0
M  V30 74 H -4.636758 -1.550298 -2.452775 0
M  V30 75 H -2.338835 1.282788 2.616742 0
M  V30 76 H -3.605016 2.253283 4.063800 0
M  V30 77 H -5.044274 1.294556 3.734616 0
M  V30 78 H -4.533108 2.592949 2.507014 0
M  V30 79 H -3.403405 -1.387527 2.897357 0
M  V30 80 H -4.715659 -0.392797 3.619048 0
M  V30 81 H -3.130618 -0.265210 4.353402 0
M  V30 82 H 6.014092 0.049151 0.695216 0
M  V30 83 H 6.528887 0.259303 -1.596649 0
M  V30 84 H 4.849536 0.337277 -3.229301 0
M  V30 85 H 1.288994 0.345933 -3.081538 0
M  V30 86 H 3.556080 1.921499 -3.458216 0
M  V30 87 H 3.690231 0.691033 -4.771387 0
M  V30 88 H 2.182462 1.704412 -4.620378 0
M  V30 89 H 2.489625 -2.010931 -3.370620 0
M  V30 90 H 3.710560 -1.037811 -4.242529 0
M  V30 91 H 2.041953 -0.998656 -4.831862 0
M  V30 92 H 2.838048 -0.070305 2.295559 0
M  V30 93 H 4.583720 -0.698500 3.529938 0
M  V30 94 H 5.183708 -1.282579 1.969751 0
M  V30 95 H 5.738319 0.367724 2.602176 0
M  V30 96 H 4.416815 1.953547 3.021701 0
M  V30 97 H 4.588681 2.080781 1.202419 0
M  V30 98 H 2.978522 2.284908 1.983557 0
M  V30 99 H 3.179531 2.597986 -0.648741 0
M  V30 100 H 3.437300 4.980884 -1.056416 0
M  V30 101 H 1.404425 6.546785 -1.116767 0
M  V30 102 H -1.085767 6.614413 -0.918214 0
M  V30 103 H -3.211288 5.249114 -0.531175 0
M  V30 104 H -3.066316 2.889241 -0.182347 0
M  V30 105 H 2.483134 -4.105202 -0.707771 0
M  V30 106 H 1.439848 -3.527821 -2.005997 0
M  V30 107 H 2.330332 -2.293851 -1.105674 0
M  V30 108 H 0.851584 -5.148004 -0.127743 0
M  V30 109 H -0.189439 -4.414704 -1.493796 0
M  V30 110 H -1.846265 -4.779424 0.080615 0
M  V30 111 H -0.739848 -4.542217 1.562601 0
M  V30 112 H -3.120166 -3.543586 -0.045956 0
M  V30 113 H -3.016121 -1.925147 0.667433 0
M  V30 114 H -2.748022 -3.333841 1.704287 0
M  V30 END ATOM
M  V30 BEGIN BOND
M  V30 1 1 1 2
M  V30 2 1 2 3
M  V30 3 1 3 4
M  V30 4 1 4 5
M  V30 5 1 5 6
M  V30 6 9 5 7
M  V30 7 1 7 8
M  V30 8 2 8 9
M  V30 9 2 9 10
M  V30 10 1 7 11
M  V30 11 1 11 12
M  V30 12 2 12 13
M  V30 13 1 13 14
M  V30 14 2 14 15
M  V30 15 1 15 16
M  V30 16 2 16 17
M  V30 17 1 17 18
M  V30 18 1 18 19
M  V30 19 1 18 20
M  V30 20 1 13 21
M  V30 21 1 21 22
M  V30 22 1 21 23
M  V30 23 1 11 24
M  V30 24 2 24 25
M  V30 25 1 25 26
M  V30 26 1 26 27
M  V30 27 2 27 28
M  V30 28 1 28 29
M  V30 29 2 29 30
M  V30 30 1 30 31
M  V30 31 2 31 32
M  V30 32 1 32 33
M  V30 33 1 33 34
M  V30 34 1 33 35
M  V30 35 1 28 36
M  V30 36 1 36 37
M  V30 37 1 36 38
M  V30 38 1 25 39
M  V30 39 2 39 40
M  V30 40 1 40 41
M  V30 41 2 41 42
M  V30 42 1 42 43
M  V30 43 2 43 44
M  V30 44 1 44 45
M  V30 45 2 45 46
M  V30 46 1 46 47
M  V30 47 2 47 48
M  V30 48 9 49 7
M  V30 49 1 49 50
M  V30 50 1 49 51
M  V30 51 1 51 52
M  V30 52 1 52 53
M  V30 53 1 53 54
M  V30 54 9 2 7
M  V30 55 1 17 12
M  V30 56 1 47 24
M  V30 57 1 26 7
M  V30 58 1 32 27
M  V30 59 1 48 39
M  V30 60 9 53 7
M  V30 61 1 48 43
M  V30 62 1 1 55
M  V30 63 1 1 56
M  V30 64 1 1 57
M  V30 65 1 3 58
M  V30 66 1 3 59
M  V30 67 1 4 60
M  V30 68 1 4 61
M  V30 69 1 6 62
M  V30 70 1 6 63
M  V30 71 1 6 64
M  V30 72 1 14 65
M  V30 73 1 15 66
M  V30 74 1 16 67
M  V30 75 1 18 68
M  V30 76 1 19 69
M  V30 77 1 19 70
M  V30 78 1 19 71
M  V30 79 1 20 72
M  V30 80 1 20 73
M  V30 81 1 20 74
M  V30 82 1 21 75
M  V30 83 1 22 76
M  V30 84 1 22 77
M  V30 85 1 22 78
M  V30 86 1 23 79
M  V30 87 1 23 80
M  V30 88 1 23 81
M  V30 89 1 29 82
M  V30 90 1 30 83
M  V30 91 1 31 84
M  V30 92 1 33 85
M  V30 93 1 34 86
M  V30 94 1 34 87
M  V30 95 1 34 88
M  V30 96 1 35 89
M  V30 97 1 35 90
M  V30 98 1 35 91
M  V30 99 1 36 92
M  V30 100 1 37 93
M  V30 101 1 37 94
M  V30 102 1 37 95
M  V30 103 1 38 96
M  V30 104 1 38 97
M  V30 105 1 38 98
M  V30 106 1 40 99
M  V30 107 1 41 100
M  V30 108 1 42 101
M  V30 109 1 44 102
M  V30 110 1 45 103
M  V30 111 1 46 104
M  V30 112 1 50 105
M  V30 113 1 50 106
M  V30 114 1 50 107
M  V30 115 1 51 108
M  V30 116 1 51 109
M  V30 117 1 52 110
M  V30 118 1 52 111
M  V30 119 1 54 112
M  V30 120 1 54 113
M  V30 121 1 54 114
M  V30 END BOND
M  V30 END CTAB
M  END
