
  --CCDC--092525    3D                              

 62 63  0  0  0  0  0  0  0  0999 V2000
    0.0124    0.0134   -0.0072 C      0
    1.9276    0.0122   -0.7098 Pt     0
    2.2537   -1.7711    0.2282 C      0
    2.5446    0.9773    0.9804 C      0
    1.6009    1.7991   -1.6497 N      0
    0.4187    2.1279   -2.2426 N      0
    0.5948    3.3674   -2.6618 C      0
   -0.4838    4.0631   -3.4311 C      0
   -0.2842    3.9869   -4.9375 C      0
    1.1236    4.1896   -5.4514 C      0
    1.8030    5.5103   -5.0417 C      0
    2.9407    5.3475   -4.0666 C      0
    2.6139    5.0788   -2.6055 C      0
    1.8936    3.7857   -2.3174 C      0
    2.5153    2.8073   -1.6883 N      0
    1.1619   -1.1536   -2.6857 P      0
   -0.5798   -0.7858   -3.0146 C      0
    1.2714   -2.9468   -2.4759 C      0
    2.0850   -0.6807   -4.1675 C      0
    4.2235   -0.0780   -1.4770 P      0
    4.6308   -1.7595   -2.0111 C      0
    5.3606    0.3108   -0.1238 C      0
    4.6131    1.0688   -2.8239 C      0
   -0.5384    0.8527   -0.4259 H      0
   -0.4719   -0.9178   -0.2946 H      0
    0.0232    0.0900    1.0783 H      0
    1.3032   -2.1904    0.5511 H      0
    2.8861   -1.6073    1.0979 H      0
    2.7529   -2.4658   -0.4418 H      0
    1.6739    1.3145    1.5394 H      0
    3.1573    1.8353    0.7178 H      0
    3.1206    0.2938    1.6001 H      0
   -0.4996    5.1112   -3.1358 H      0
   -1.4389    3.6019   -3.1839 H      0
   -0.9136    4.7506   -5.3920 H      0
   -0.6152    3.0022   -5.2641 H      0
    1.0906    4.1542   -6.5393 H      0
    1.7362    3.3694   -5.0799 H      0
    1.0517    6.1526   -4.5846 H      0
    2.1903    5.9875   -5.9407 H      0
    3.5270    6.2646   -4.1012 H      0
    3.5483    4.5149   -4.4182 H      0
    1.9885    5.8956   -2.2481 H      0
    3.5508    5.0694   -2.0505 H      0
   -0.9520   -1.4110   -3.8242 H      0
   -0.7150    0.2520   -3.3087 H      0
   -1.1918   -0.9751   -2.1352 H      0
    0.6536   -3.2748   -1.6425 H      0
    2.2961   -3.2557   -2.2820 H      0
    0.9258   -3.4583   -3.3719 H      0
    1.7597   -1.2653   -5.0254 H      0
    3.1526   -0.8366   -4.0406 H      0
    1.9297    0.3711   -4.3969 H      0
    3.9065   -2.1436   -2.7241 H      0
    4.6459   -2.4361   -1.1597 H      0
    5.6136   -1.7880   -2.4782 H      0
    5.1722   -0.3281    0.7361 H      0
    6.3920    0.1604   -0.4371 H      0
    5.2537    1.3469    0.1894 H      0
    3.7633    1.2296   -3.4808 H      0
    5.4316    0.6816   -3.4275 H      0
    4.9309    2.0340   -2.4395 H      0
  1  2  1
  2  3  1
  2  4  1
  2  5  1
  5  6  1
  6  7  2
  7  8  1
  8  9  1
  9 10  1
 10 11  1
 11 12  1
 12 13  1
 13 14  1
  7 14  1
 14 15  2
  5 15  1
  2 16  1
 16 17  1
 16 18  1
 16 19  1
  2 20  1
 20 21  1
 20 22  1
 20 23  1
  1 24  1
  1 25  1
  1 26  1
  3 27  1
  3 28  1
  3 29  1
  4 30  1
  4 31  1
  4 32  1
  8 33  1
  8 34  1
  9 35  1
  9 36  1
 10 37  1
 10 38  1
 11 39  1
 11 40  1
 12 41  1
 12 42  1
 13 43  1
 13 44  1
 17 45  1
 17 46  1
 17 47  1
 18 48  1
 18 49  1
 18 50  1
 19 51  1
 19 52  1
 19 53  1
 21 54  1
 21 55  1
 21 56  1
 22 57  1
 22 58  1
 22 59  1
 23 60  1
 23 61  1
 23 62  1
M  END
$$$$
