
 OpenBabel09252517003D

 32 34  0  0  0  0  0  0  0  0999 V2000
    0.9684    0.0945    0.0083 C   0  0  0  0  0  0  0  0  0  0  0  0
    0.4617   -0.5167   -1.2879 C   0  0  0  0  0  0  0  0  0  0  0  0
    0.9684   -1.9448   -1.4067 C   0  0  0  0  0  0  0  0  0  0  0  0
    0.0843   -2.9752   -1.4925 C   0  0  0  0  0  0  0  0  0  0  0  0
   -1.0583   -0.5167   -1.2879 C   0  0  0  0  0  0  0  0  0  0  0  0
   -1.5483    0.8645   -1.1730 N   0  0  0  0  0  0  0  0  0  0  0  0
   -1.2413    1.5653   -0.1582 N   0  0  0  0  0  0  0  0  0  0  0  0
   -0.5106    1.0720    0.7572 N   0  0  0  0  0  2  0  0  0  0  0  0
   -1.5650   -1.1278   -2.5841 C   0  0  0  0  0  0  0  0  0  0  0  0
   -1.4418   -2.4089   -2.8883 C   0  0  0  0  0  0  0  0  0  0  0  0
   -1.9082   -2.5401   -4.2931 C   0  0  0  0  0  0  0  0  0  0  0  0
   -2.2638   -1.3237   -4.6715 C   0  0  0  0  0  0  0  0  0  0  0  0
   -2.8187   -0.9476   -6.0357 C   0  0  0  0  0  0  0  0  0  0  0  0
   -2.0536   -0.4760   -3.6516 Fe  0  0  0  0  0  0  0  0  0  0  0  0
   -1.8543   -1.6485   -5.3580 C   0  0  0  0  0  0  0  0  0  0  0  0
   -1.7375   -2.3352   -6.3573 O   0  0  0  0  0  0  0  0  0  0  0  0
   -0.4645    0.4656   -4.6079 C   0  0  0  0  0  0  0  0  0  0  0  0
    0.4661    1.0171   -5.1680 O   0  0  0  0  0  0  0  0  0  0  0  0
   -0.1438   -0.8066   -2.8968 C   0  0  0  0  0  0  0  0  0  0  0  0
    0.9746   -1.0002   -2.4548 O   0  0  0  0  0  0  0  0  0  0  0  0
    0.6117   -0.4806    0.8371 H   0  0  0  0  0  0  0  0  0  0  0  0
    0.6117    1.0998    0.0920 H   0  0  0  0  0  0  0  0  0  0  0  0
    2.0384    0.0945    0.0083 H   0  0  0  0  0  0  0  0  0  0  0  0
    0.8184    0.0585   -2.1167 H   0  0  0  0  0  0  0  0  0  0  0  0
    2.0204   -2.1396   -1.4229 H   0  0  0  0  0  0  0  0  0  0  0  0
    0.4410   -3.9806   -1.5761 H   0  0  0  0  0  0  0  0  0  0  0  0
   -0.9676   -2.7804   -1.4762 H   0  0  0  0  0  0  0  0  0  0  0  0
   -1.4150   -1.0918   -0.4591 H   0  0  0  0  0  0  0  0  0  0  0  0
   -1.5813    2.5237   -0.0784 H   0  0  0  0  0  0  0  0  0  0  0  0
   -3.7949   -0.5251   -5.9195 H   0  0  0  0  0  0  0  0  0  0  0  0
   -2.1727   -0.2309   -6.4983 H   0  0  0  0  0  0  0  0  0  0  0  0
   -2.8792   -1.8218   -6.6496 H   0  0  0  0  0  0  0  0  0  0  0  0
  1  2  1  0  0  0  0
  1 21  1  0  0  0  0
  1 22  1  0  0  0  0
  1 23  1  0  0  0  0
  2  3  1  0  0  0  0
  2  5  1  0  0  0  0
  2 24  1  0  0  0  0
  3  4  2  0  0  0  0
  3 25  1  0  0  0  0
  4 26  1  0  0  0  0
  4 27  1  0  0  0  0
  5  6  1  0  0  0  0
  5  9  1  0  0  0  0
  5 28  1  0  0  0  0
  6  7  2  0  0  0  0
  7  8  2  0  0  0  0
  7 29  1  0  0  0  0
  9 10  2  0  0  0  0
  9 14  1  0  0  0  0
 10 11  1  0  0  0  0
 10 14  1  0  0  0  0
 11 12  2  0  0  0  0
 11 14  1  0  0  0  0
 12 13  1  0  0  0  0
 12 14  1  0  0  0  0
 13 30  1  0  0  0  0
 13 31  1  0  0  0  0
 13 32  1  0  0  0  0
 14 15  1  0  0  0  0
 14 17  1  0  0  0  0
 14 19  1  0  0  0  0
 15 16  3  0  0  0  0
 17 18  3  0  0  0  0
 19 20  3  0  0  0  0
M  END
$$$$
