
  --CCDC--092525    3D                              

 80 95  0  0  0  0  0  0  0  0999 V2000
   -0.1179   -2.2668   -2.4432 C      0
    1.2731   -2.4177   -2.7192 O      0
    2.1378   -2.8043   -1.7255 C      0
    3.4781   -2.9382   -2.0369 C      0
    4.3808   -3.3243   -1.0637 C      0
    3.9693   -3.5789    0.2363 C      0
    2.6166   -3.4471    0.5380 C      0
    1.7079   -3.0623   -0.4329 C      0
    4.9786   -3.9566    1.1745 N      0
    6.8296   -4.0530    0.4157 Cu     0
    7.6635   -6.2082   -0.1888 P      0
    6.7731   -6.8245   -1.6391 C      0
    5.4382   -6.4893   -1.8338 C      0
    4.7335   -7.0046   -2.9088 C      0
    5.3409   -7.8830   -3.7791 C      0
    6.6481   -8.2633   -3.5672 C      0
    7.3592   -7.7517   -2.4945 C      0
    7.3137   -7.4033    1.1230 C      0
    6.0562   -7.9884    1.2216 C      0
    5.7653   -8.8491    2.2669 C      0
    6.7136   -9.1161    3.2304 C      0
    7.9524   -8.5165    3.1599 C      0
    8.2519   -7.6543    2.1182 C      0
    9.4419   -6.3105   -0.5373 C      0
   10.6942   -6.0683    0.2638 C      0
   11.8651   -5.7010   -0.4437 C      0
   11.5812   -5.9261   -1.7642 C      0
   10.2475   -6.4042   -1.8044 C      0
   10.2650   -4.4586   -1.0198 Fe     0
    9.7738   -3.4340   -2.6822 C      0
    9.6807   -2.6989   -1.1894 C      0
   10.0418   -3.0619    0.3990 C      0
    9.6100   -2.2857   -0.4683 C      0
    9.5302   -2.4544   -1.9505 C      0
    7.9430   -1.9637    0.1367 P      0
    8.0685   -1.1135    1.7285 C      0
    6.9974   -1.1129    2.6151 C      0
    7.0695   -0.3977    3.7989 C      0
    8.1958    0.3380    4.0978 C      0
    9.2498    0.3713    3.2107 C      0
    9.1860   -0.3410    2.0247 C      0
    7.0928   -0.8408   -0.9999 C      0
    6.5732   -1.3026   -2.2043 C      0
    5.9791   -0.4229   -3.0939 C      0
    5.9183    0.9227   -2.8034 C      0
    6.4602    1.3964   -1.6283 C      0
    7.0548    0.5233   -0.7327 C      0
    4.8073   -4.2381    2.5660 C      0
    3.7567   -4.2007    3.1741 O      0
    6.0420   -4.6058    3.4145 C      0
    6.2422   -5.9121    3.4561 F      0
    5.8972   -4.2154    4.6703 F      0
    7.1648   -4.0550    2.9854 F      0
   -0.6569   -1.9572   -3.3361 H      0
   -0.2790   -1.5158   -1.6726 H      0
   -0.5465   -3.2050   -2.0969 H      0
    3.8218   -2.7412   -3.0470 H      0
    5.4285   -3.4369   -1.3199 H      0
    2.2450   -3.6423    1.5354 H      0
    0.6617   -2.9680   -0.1627 H      0
    4.9445   -5.8225   -1.1361 H      0
    3.6984   -6.7186   -3.0639 H      0
    4.7891   -8.2800   -4.6248 H      0
    7.1214   -8.9693   -4.2417 H      0
    8.3781   -8.0803   -2.3222 H      0
    5.3000   -7.7719    0.4742 H      0
    4.7865   -9.3131    2.3285 H      0
    6.4838   -9.7942    4.0456 H      0
    8.6951   -8.7189    3.9245 H      0
    9.2240   -7.1745    2.0783 H      0
    6.1016   -1.6779    2.3797 H      0
    6.2354   -0.4149    4.4925 H      0
    8.2508    0.8938    5.0280 H      0
   10.1320    0.9593    3.4412 H      0
   10.0136   -0.2983    1.3243 H      0
    6.6348   -2.3574   -2.4500 H      0
    5.5625   -0.7943   -4.0243 H      0
    5.4488    1.6087   -3.5007 H      0
    6.4224    2.4574   -1.4047 H      0
    7.4903    0.9055    0.1846 H      0
  1  2  1
  2  3  1
  3  4  4
  4  5  4
  5  6  4
  6  7  4
  7  8  4
  3  8  4
  6  9  1
  9 10  1
 10 11  1
 11 12  1
 12 13  4
 13 14  4
 14 15  4
 15 16  4
 16 17  4
 12 17  4
 11 18  1
 18 19  4
 19 20  4
 20 21  4
 21 22  4
 22 23  4
 18 23  4
 11 24  1
 24 25  4
 25 26  4
 26 27  4
 27 28  4
 24 28  4
 28 29  1
 24 29  1
 25 29  1
 26 29  1
 27 29  1
 29 30  1
 30 31  4
 29 31  1
 31 32  4
 29 32  1
 32 33  4
 29 33  1
 33 34  4
 29 34  1
 30 34  4
 33 35  1
 10 35  1
 35 36  1
 36 37  4
 37 38  4
 38 39  4
 39 40  4
 40 41  4
 36 41  4
 35 42  1
 42 43  4
 43 44  4
 44 45  4
 45 46  4
 46 47  4
 42 47  4
  9 48  1
 48 49  2
 48 50  1
 50 51  1
 50 52  1
 50 53  1
  1 54  1
  1 55  1
  1 56  1
  4 57  1
  5 58  1
  7 59  1
  8 60  1
 13 61  1
 14 62  1
 15 63  1
 16 64  1
 17 65  1
 19 66  1
 20 67  1
 21 68  1
 22 69  1
 23 70  1
 37 71  1
 38 72  1
 39 73  1
 40 74  1
 41 75  1
 43 76  1
 44 77  1
 45 78  1
 46 79  1
 47 80  1
M  END
$$$$
