
  --CCDC--092525    3D                              

 73 75  0  0  0  0  0  0  0  0999 V2000
   -0.8044    0.8060   -0.1675 H      0
   -0.0004    1.5334   -0.1256 C      0
    1.1974    1.2763   -0.7558 C      0
    1.3335    0.3475   -1.2998 H      0
    2.2293    2.1982   -0.6957 C      0
    3.1690    1.9865   -1.1950 H      0
    2.0744    3.3896    0.0062 C      0
    3.2064    4.3842    0.0818 C      0
    3.7379    5.2471   -0.5544 C      0
    3.6821    5.9252   -1.8829 C      0
    2.9487    5.3547   -2.9190 C      0
    2.4201    4.4221   -2.7515 H      0
    2.8888    5.9616   -4.1623 C      0
    2.3155    5.5026   -4.9609 H      0
    3.5554    7.1454   -4.3888 C      0
    3.5103    7.6177   -5.3646 H      0
    4.2772    7.7287   -3.3710 C      0
    4.7985    8.6640   -3.5461 H      0
    4.3379    7.1288   -2.1240 C      0
    4.8933    7.6110   -1.3291 H      0
    4.4186    5.3175    1.2440 Co     3
    3.2572    6.4343    2.2885 N      0
    2.5619    7.1364    2.8627 C      0
    1.7000    8.0577    3.5903 C      0
    1.1699    8.7140    2.9033 H      0
    2.2830    8.6769    4.2688 H      0
    0.9624    7.5140    4.1768 H      0
    4.2675    4.1113    3.2283 P      0
    3.6933    2.4473    2.7961 C      0
    2.7038    2.2681    3.2089 H      0
    4.3627    1.7028    3.2221 H      0
    3.6443    2.2632    1.7315 H      0
    2.7306    4.3375    4.1575 C      0
    2.6307    3.5541    4.9059 H      0
    2.7139    5.2880    4.6828 H      0
    1.8622    4.2814    3.5079 H      0
    5.1473    4.9633    4.5611 C      0
    4.8925    6.0205    4.5695 H      0
    6.2237    4.8796    4.4799 H      0
    4.8592    4.5480    5.5245 H      0
    5.4848    7.3734    1.2845 P      0
    4.8223    9.0549    1.3578 C      0
    4.3620    9.3297    0.4110 H      0
    5.6125    9.7718    1.5711 H      0
    4.0688    9.1390    2.1381 H      0
    6.6889    7.4482   -0.0675 C      0
    6.6225    8.4188   -0.5546 H      0
    6.4769    6.6946   -0.8216 H      0
    7.7152    7.3423    0.2606 H      0
    6.0157    7.4473    3.0167 C      0
    5.2204    7.8066    3.6621 H      0
    6.8462    8.1431    3.1163 H      0
    6.3479    6.4935    3.4056 H      0
    6.5267    4.3393    1.0236 P      0
    6.6801    2.5760    1.3889 C      0
    6.8110    2.3972    2.4525 H      0
    7.5404    2.1543    0.8734 H      0
    5.7941    2.0367    1.0603 H      0
    6.3994    4.1818   -0.7755 C      0
    6.0009    5.0835   -1.2324 H      0
    5.7716    3.3386   -1.0543 H      0
    7.3838    4.0035   -1.2031 H      0
    7.6188    5.0577    2.2725 C      0
    7.7222    6.1320    2.1677 H      0
    8.6135    4.6266    2.1797 H      0
    7.2721    4.8333    3.2732 H      0
    0.8487    3.6490    0.6093 C      0
    0.6870    4.5981    1.1070 H      0
   -0.1763    2.7195    0.5529 C      0
   -1.1233    2.9287    1.0394 H      0
    5.3621    3.2915    3.5206 H      0
    4.1618    7.5166    0.8495 H      0
    7.5675    4.9713    0.3397 H      0
  1  2  1
  2  3  4
  3  4  1
  3  5  4
  5  6  1
  5  7  4
  7  8  1
  8  9  3
  9 10  1
 10 11  4
 11 12  1
 11 13  4
 13 14  1
 13 15  4
 15 16  1
 15 17  4
 17 18  1
 17 19  4
 10 19  4
 19 20  1
  9 21  1
  8 21  1
 21 22  1
 22 23  3
 23 24  1
 24 25  1
 24 26  1
 24 27  1
 21 28  1
 28 29  1
 29 30  1
 29 31  1
 29 32  1
 28 33  1
 33 34  1
 33 35  1
 33 36  1
 28 37  1
 37 38  1
 37 39  1
 37 40  1
 21 41  1
 41 42  1
 42 43  1
 42 44  1
 42 45  1
 41 46  1
 46 47  1
 46 48  1
 46 49  1
 41 50  1
 50 51  1
 50 52  1
 50 53  1
 21 54  1
 54 55  1
 55 56  1
 55 57  1
 55 58  1
 54 59  1
 59 60  1
 59 61  1
 59 62  1
 54 63  1
 63 64  1
 63 65  1
 63 66  1
  7 67  4
 67 68  1
 67 69  4
  2 69  4
 69 70  1
 28 71  1
 41 72  1
 54 73  1
M  CHG  1  21   1
M  END
$$$$
