
  --CCDC--092525    3D                              

 34 33  0  0  0  0  0  0  0  0999 V2000
   -0.0000   -0.0001   -0.0000 H      0
    0.5439    0.9422    0.0000 C      0
    0.7406    1.2201   -1.0334 H      0
    1.4992    0.7821    0.4955 H      0
   -0.2214    1.9799    0.6769 C      0
   -0.8286    2.8035    1.1820 N      0
   -2.2916    4.7879    2.4002 La     0
   -0.8954    2.9367    4.7201 Br     0
   -3.7588    7.6697    1.8517 Br     0
   -4.4292    5.3528    4.8231 Br     0
   -0.7300    6.3897    3.9997 N      0
   -0.0837    7.0553    4.6638 C      0
    0.7206    7.8954    5.5402 C      0
    0.0852    8.5068    6.1776 H      0
    1.3575    8.5595    4.9596 H      0
    1.3576    7.2876    6.1794 H      0
   -3.5744    4.7034   -0.0308 N      0
   -4.1069    4.6680   -1.0394 C      0
   -4.7747    4.5899   -2.3313 C      0
   -4.9264    3.5533   -2.6248 H      0
   -4.1814    5.0771   -3.1023 H      0
   -5.7468    5.0771   -2.2934 H      0
   -0.3368    5.9542    0.8571 N      0
    0.4749    6.4364    0.2163 C      0
    1.4988    7.0831   -0.5924 C      0
    2.1246    6.3429   -1.0867 H      0
    2.1388    7.7100    0.0250 H      0
    1.0464    7.7101   -1.3578 H      0
   -4.1385    2.7519    2.4729 N      0
   -4.9048    1.9071    2.5031 C      0
   -5.8655    0.8128    2.5141 C      0
   -6.1250    0.5173    1.4997 H      0
   -6.7794    1.1073    3.0257 H      0
   -5.4553   -0.0554    3.0257 H      0
  1  2  1
  2  3  1
  2  4  1
  2  5  1
  5  6  3
  6  7  1
  7  8  1
  7  9  1
  7 10  1
  7 11  1
 11 12  3
 12 13  1
 13 14  1
 13 15  1
 13 16  1
  7 17  1
 17 18  3
 18 19  1
 19 20  1
 19 21  1
 19 22  1
  7 23  1
 23 24  3
 24 25  1
 25 26  1
 25 27  1
 25 28  1
  7 29  1
 29 30  3
 30 31  1
 31 32  1
 31 33  1
 31 34  1
M  END
$$$$
