
     RDKit          3D

  0  0  0  0  0  0  0  0  0  0999 V3000
M  V30 BEGIN CTAB
M  V30 COUNTS 109 117 0 0 0
M  V30 BEGIN ATOM
M  V30 1 C 1.375753 -0.349095 4.841004 0
M  V30 2 C 0.895637 -0.407643 3.565966 0
M  V30 3 N 0.482398 -0.453286 2.525267 0
M  V30 4 Fe -0.306318 -0.553357 0.629449 0 CHG=2 VAL=6
M  V30 5 N -1.260752 -0.836991 -1.152444 0
M  V30 6 C -1.801888 -0.987354 -2.121843 0
M  V30 7 C -2.481171 -1.156208 -3.298644 0
M  V30 8 N -2.164544 -0.978672 1.598404 0
M  V30 9 C -2.777881 0.084450 1.860914 0
M  V30 10 C -2.392639 1.581000 1.576984 0
M  V30 11 P -0.730617 1.767997 0.634192 0 RAD=2 VAL=4
M  V30 12 C -1.188407 2.651812 -0.808295 0
M  V30 13 C -0.833268 2.415188 -2.117188 0
M  V30 14 C -1.256289 3.149042 -3.202092 0
M  V30 15 C -2.106606 4.214898 -2.985175 0
M  V30 16 C -2.571220 5.016559 -4.144516 0
M  V30 17 C -2.458592 4.448444 -1.683267 0
M  V30 18 C -2.033129 3.710465 -0.594708 0
M  V30 19 C 0.264277 2.939581 1.386866 0
M  V30 20 C 1.071566 3.903443 0.896764 0
M  V30 21 C 1.823290 4.781048 1.649032 0
M  V30 22 C 1.785420 4.713748 3.020067 0
M  V30 23 C 2.580582 5.640501 3.862816 0
M  V30 24 C 0.980892 3.751892 3.589471 0
M  V30 25 C 0.232601 2.878744 2.789326 0
M  V30 26 C -2.460820 -2.386765 1.829318 0
M  V30 27 C -1.320856 -3.345109 1.484444 0
M  V30 28 N -0.191330 -2.692125 0.771456 0
M  V30 29 C 0.888646 -3.286043 0.270705 0
M  V30 30 C 1.999539 -2.491297 -0.452372 0
M  V30 31 P 1.842275 -0.591344 -0.397945 0 RAD=2 VAL=4
M  V30 32 C 3.268949 -0.004367 0.449744 0
M  V30 33 C 3.431152 0.933084 1.439814 0
M  V30 34 C 4.613192 1.285087 2.042724 0
M  V30 35 C 5.749763 0.639371 1.618515 0
M  V30 36 C 7.043414 1.004478 2.253966 0
M  V30 37 C 5.616509 -0.309728 0.622673 0
M  V30 38 C 4.410902 -0.640337 0.036011 0
M  V30 39 C 2.139505 0.090329 -1.955095 0
M  V30 40 C 2.800792 1.225872 -2.340120 0
M  V30 41 C 2.934208 1.600606 -3.665058 0
M  V30 42 C 2.393603 0.828310 -4.685476 0
M  V30 43 C 2.538300 1.231974 -6.101853 0
M  V30 44 C 1.721831 -0.319649 -4.343099 0
M  V30 45 C 1.598330 -0.680485 -2.997091 0
M  V30 46 C -1.733046 -4.479537 0.651961 0
M  V30 47 C -1.869005 -5.746748 1.217056 0
M  V30 48 C -2.272194 -6.892883 0.545041 0
M  V30 49 C -2.572009 -6.784825 -0.817199 0
M  V30 50 C -2.449491 -5.541202 -1.421356 0
M  V30 51 C -2.044701 -4.483509 -0.664323 0
M  V30 52 C -3.737835 -2.902616 1.434074 0
M  V30 53 C -4.364631 -2.568063 0.256998 0
M  V30 54 C -5.598214 -3.092418 -0.120757 0
M  V30 55 C -6.232353 -3.994292 0.720382 0
M  V30 56 C -5.636557 -4.359052 1.917306 0
M  V30 57 C -4.409398 -3.818062 2.262551 0
M  V30 58 H 2.030274 -1.225137 5.014377 0
M  V30 59 H 1.871987 0.640408 4.963341 0
M  V30 60 H 0.594637 -0.387112 5.651252 0
M  V30 61 H -3.596902 -1.024516 -3.214957 0
M  V30 62 H -2.139906 -0.367310 -4.003675 0
M  V30 63 H -2.331353 -2.197240 -3.649978 0
M  V30 64 H -2.967666 0.970143 1.888560 0
M  V30 65 H -2.178950 2.122034 2.560743 0
M  V30 66 H -3.117538 2.159688 1.041409 0
M  V30 67 H -0.181341 1.582761 -2.284996 0
M  V30 68 H -0.901828 2.855862 -4.193252 0
M  V30 69 H -1.783778 5.725263 -4.453976 0
M  V30 70 H -3.462329 5.641464 -3.862837 0
M  V30 71 H -2.920314 4.390725 -4.988208 0
M  V30 72 H -3.137770 5.293858 -1.491290 0
M  V30 73 H -2.379848 3.986904 0.394747 0
M  V30 74 H 1.083229 3.939598 -0.205165 0
M  V30 75 H 2.437040 5.515468 1.160940 0
M  V30 76 H 2.507953 5.374696 4.932978 0
M  V30 77 H 3.643283 5.575128 3.584049 0
M  V30 78 H 2.240483 6.701275 3.752483 0
M  V30 79 H 0.978307 3.731391 4.666304 0
M  V30 80 H -0.336929 2.193640 3.398048 0
M  V30 81 H -2.472988 -2.379276 2.964159 0
M  V30 82 H -0.966957 -3.782557 2.435420 0
M  V30 83 H 1.145752 -2.376351 -0.003490 0
M  V30 84 H 3.005457 -2.764978 -0.079456 0
M  V30 85 H 2.065105 -2.798194 -1.545320 0
M  V30 86 H 2.509689 1.394063 1.740746 0
M  V30 87 H 4.560223 2.054342 2.814331 0
M  V30 88 H 7.778047 0.230995 1.970884 0
M  V30 89 H 7.305162 2.023382 1.880174 0
M  V30 90 H 6.906200 1.004348 3.363576 0
M  V30 91 H 6.554222 -0.785744 0.331687 0
M  V30 92 H 4.462057 -1.398062 -0.725191 0
M  V30 93 H 3.196515 1.778645 -1.495500 0
M  V30 94 H 3.472775 2.514750 -3.860374 0
M  V30 95 H 3.546121 1.690381 -6.316801 0
M  V30 96 H 2.490156 0.315989 -6.737444 0
M  V30 97 H 1.738898 1.904276 -6.445200 0
M  V30 98 H 1.321758 -0.883590 -5.156444 0
M  V30 99 H 1.039955 -1.617336 -2.892429 0
M  V30 100 H -1.644165 -5.888998 2.289836 0
M  V30 101 H -2.354048 -7.846699 1.046450 0
M  V30 102 H -2.886244 -7.659899 -1.346781 0
M  V30 103 H -2.695417 -5.507931 -2.473721 0
M  V30 104 H -1.981819 -3.581953 -1.205270 0
M  V30 105 H -3.936439 -1.871080 -0.442946 0
M  V30 106 H -6.057724 -2.790813 -1.073890 0
M  V30 107 H -7.190865 -4.372926 0.378478 0
M  V30 108 H -6.161634 -5.055810 2.529524 0
M  V30 109 H -3.928094 -4.102824 3.212754 0
M  V30 END ATOM
M  V30 BEGIN BOND
M  V30 1 1 1 2
M  V30 2 3 2 3
M  V30 3 9 3 4
M  V30 4 9 5 4
M  V30 5 3 5 6
M  V30 6 1 6 7
M  V30 7 9 8 4
M  V30 8 2 8 9
M  V30 9 1 9 10
M  V30 10 1 10 11
M  V30 11 1 11 12
M  V30 12 2 12 13
M  V30 13 1 13 14
M  V30 14 2 14 15
M  V30 15 1 15 16
M  V30 16 1 15 17
M  V30 17 2 17 18
M  V30 18 1 11 19
M  V30 19 2 19 20
M  V30 20 1 20 21
M  V30 21 2 21 22
M  V30 22 1 22 23
M  V30 23 1 22 24
M  V30 24 2 24 25
M  V30 25 1 8 26
M  V30 26 1 26 27
M  V30 27 1 27 28
M  V30 28 2 28 29
M  V30 29 1 29 30
M  V30 30 1 30 31
M  V30 31 1 31 32
M  V30 32 2 32 33
M  V30 33 1 33 34
M  V30 34 2 34 35
M  V30 35 1 35 36
M  V30 36 1 35 37
M  V30 37 2 37 38
M  V30 38 1 31 39
M  V30 39 2 39 40
M  V30 40 1 40 41
M  V30 41 2 41 42
M  V30 42 1 42 43
M  V30 43 1 42 44
M  V30 44 2 44 45
M  V30 45 1 27 46
M  V30 46 2 46 47
M  V30 47 1 47 48
M  V30 48 2 48 49
M  V30 49 1 49 50
M  V30 50 2 50 51
M  V30 51 1 26 52
M  V30 52 2 52 53
M  V30 53 1 53 54
M  V30 54 2 54 55
M  V30 55 1 55 56
M  V30 56 2 56 57
M  V30 57 1 11 4
M  V30 58 1 18 12
M  V30 59 1 25 19
M  V30 60 1 38 32
M  V30 61 1 45 39
M  V30 62 1 51 46
M  V30 63 1 57 52
M  V30 64 9 28 4
M  V30 65 1 31 4
M  V30 66 1 1 58
M  V30 67 1 1 59
M  V30 68 1 1 60
M  V30 69 1 7 61
M  V30 70 1 7 62
M  V30 71 1 7 63
M  V30 72 1 9 64
M  V30 73 1 10 65
M  V30 74 1 10 66
M  V30 75 1 13 67
M  V30 76 1 14 68
M  V30 77 1 16 69
M  V30 78 1 16 70
M  V30 79 1 16 71
M  V30 80 1 17 72
M  V30 81 1 18 73
M  V30 82 1 20 74
M  V30 83 1 21 75
M  V30 84 1 23 76
M  V30 85 1 23 77
M  V30 86 1 23 78
M  V30 87 1 24 79
M  V30 88 1 25 80
M  V30 89 1 26 81
M  V30 90 1 27 82
M  V30 91 1 29 83
M  V30 92 1 30 84
M  V30 93 1 30 85
M  V30 94 1 33 86
M  V30 95 1 34 87
M  V30 96 1 36 88
M  V30 97 1 36 89
M  V30 98 1 36 90
M  V30 99 1 37 91
M  V30 100 1 38 92
M  V30 101 1 40 93
M  V30 102 1 41 94
M  V30 103 1 43 95
M  V30 104 1 43 96
M  V30 105 1 43 97
M  V30 106 1 44 98
M  V30 107 1 45 99
M  V30 108 1 47 100
M  V30 109 1 48 101
M  V30 110 1 49 102
M  V30 111 1 50 103
M  V30 112 1 51 104
M  V30 113 1 53 105
M  V30 114 1 54 106
M  V30 115 1 55 107
M  V30 116 1 56 108
M  V30 117 1 57 109
M  V30 END BOND
M  V30 END CTAB
M  END
