
     RDKit          3D

 35 38  0  0  0  0  0  0  0  0999 V2000
    4.2716    1.3766    2.2670 F   0  0  0  0  0  0  0  0  0  0  0  0
    4.7659    0.5164    1.3328 C   0  0  0  0  0  0  0  0  0  0  0  0
    5.1767   -0.5842    2.0202 F   0  0  0  0  0  0  0  0  0  0  0  0
    5.8960    1.1025    0.8494 F   0  0  0  0  0  0  0  0  0  0  0  0
    3.7604    0.1787    0.2596 C   0  0  0  0  0  0  0  0  0  0  0  0
    4.1740   -0.0606   -1.0544 C   0  0  0  0  0  0  0  0  0  0  0  0
    3.2375   -0.3909   -2.0272 C   0  0  0  0  0  0  0  0  0  0  0  0
    1.8830   -0.4950   -1.6940 C   0  0  0  0  0  0  0  0  0  0  0  0
    1.4292   -0.2837   -0.3833 C   0  0  0  0  0  0  0  0  0  0  0  0
    2.3921    0.0619    0.5813 C   0  0  0  0  0  0  0  0  0  0  0  0
    0.0241   -0.3713   -0.0580 N   0  0  0  0  0  0  0  0  0  0  0  0
   -0.4150    0.1229    1.2516 C   0  0  0  0  0  0  0  0  0  0  0  0
   -1.9251    0.3391    1.4624 C   0  0  0  0  0  0  0  0  0  0  0  0
   -2.1585    0.5201    3.2265 Cl  0  0  0  0  0  0  0  0  0  0  0  0
   -2.3730    1.5539    0.8191 O   0  0  0  0  0  0  0  0  0  0  0  0
   -3.4100    1.1485   -0.1007 C   0  0  0  0  0  0  0  0  0  0  0  0
   -4.4760    2.6131   -0.7001 Br  0  0  0  0  0  0  0  0  0  0  0  0
   -2.6934    0.4598   -1.2719 C   0  0  0  0  0  0  0  0  0  0  0  0
   -2.3091   -0.8944   -0.6279 C   0  0  0  0  0  0  0  0  0  0  0  0
   -2.8095   -0.7411    0.8259 C   0  0  0  0  0  0  0  0  0  0  0  0
   -4.1375   -0.0262    0.5411 C   0  0  0  0  0  0  0  0  0  0  0  0
   -5.4556    0.3012    2.1271 I   0  0  0  0  0  0  0  0  0  0  0  0
   -0.8357   -1.1783   -0.8005 C   0  0  0  0  0  0  0  0  0  0  0  0
   -0.4965   -2.0317   -1.6180 O   0  0  0  0  0  0  0  0  0  0  0  0
    5.2261    0.0125   -1.3259 H   0  0  0  0  0  0  0  0  0  0  0  0
    3.5544   -0.5677   -3.0527 H   0  0  0  0  0  0  0  0  0  0  0  0
    1.1926   -0.7280   -2.5010 H   0  0  0  0  0  0  0  0  0  0  0  0
    2.1147    0.2290    1.6196 H   0  0  0  0  0  0  0  0  0  0  0  0
   -0.0535   -0.6197    1.9755 H   0  0  0  0  0  0  0  0  0  0  0  0
    0.0838    1.0836    1.4318 H   0  0  0  0  0  0  0  0  0  0  0  0
   -1.8263    1.0310   -1.6226 H   0  0  0  0  0  0  0  0  0  0  0  0
   -3.3592    0.2869   -2.1261 H   0  0  0  0  0  0  0  0  0  0  0  0
   -2.8648   -1.7052   -1.1187 H   0  0  0  0  0  0  0  0  0  0  0  0
   -2.8567   -1.6870    1.3708 H   0  0  0  0  0  0  0  0  0  0  0  0
   -4.7264   -0.5729   -0.2100 H   0  0  0  0  0  0  0  0  0  0  0  0
  1  2  1  0
  2  3  1  0
  2  4  1  0
  2  5  1  0
  5  6  2  0
  6  7  1  0
  7  8  2  0
  8  9  1  0
  9 10  2  0
  9 11  1  0
 11 12  1  0
 12 13  1  0
 13 14  1  0
 13 15  1  0
 15 16  1  0
 16 17  1  0
 16 18  1  0
 18 19  1  0
 19 20  1  0
 20 21  1  0
 21 22  1  0
 19 23  1  0
 23 24  2  0
 10  5  1  0
 23 11  1  0
 20 13  1  0
 21 16  1  0
  6 25  1  0
  7 26  1  0
  8 27  1  0
 10 28  1  0
 12 29  1  0
 12 30  1  0
 18 31  1  0
 18 32  1  0
 19 33  1  0
 20 34  1  0
 21 35  1  0
M  END
