
 OpenBabel09252513223D

 71 77  0  0  0  0  0  0  0  0999 V2000
    1.0997   -0.0077    0.0024 C   0  0  0  0  0  0  0  0  0  0  0  0
    0.4963    1.3112    1.0852 S   0  0  0  0  0  0  0  0  0  0  0  0
   -1.3137    1.3112    1.0852 C   0  0  0  0  0  0  0  0  0  0  0  0
    1.0065    1.0759    2.5088 O   0  0  0  0  0  0  0  0  0  0  0  0
    0.3735    2.7515    4.4209 U   0  3  0  0  0  0  0  0  0  0  0  0
   -0.5700    1.3128    2.4450 O   0  0  0  0  0  0  0  0  0  0  0  0
   -1.9152    1.4820    2.0227 C   0  0  0  0  0  0  0  0  0  0  0  0
   -2.3729    0.7841    1.0643 O   0  0  0  0  0  0  0  0  0  0  0  0
    0.9208    8.2151    0.9764 C   0  0  0  0  0  0  0  0  0  0  0  0
   -0.1002    7.3019    1.5097 N   0  0  0  0  0  0  0  0  0  0  0  0
   -1.0055    7.6878    2.6800 C   0  0  0  0  0  0  0  0  0  0  0  0
   -0.2144    7.6167    3.9872 C   0  0  0  0  0  0  0  0  0  0  0  0
   -0.9219    6.6777    4.9650 N   0  0  0  0  0  4  0  0  0  0  0  0
   -0.3871    5.2547    4.7910 C   0  0  0  0  0  0  0  0  0  0  0  0
   -1.5453    4.3092    4.4624 C   0  0  0  0  0  0  0  0  0  0  0  0
   -0.9986    2.9808    3.9379 N   0  0  0  0  0  0  0  0  0  0  0  0
   -1.0546    2.9250    2.4108 C   0  0  0  0  0  0  0  0  0  0  0  0
   -0.4522    4.1962    1.8114 C   0  0  0  0  0  0  0  0  0  0  0  0
   -0.7710    4.2528    0.3155 N   0  0  0  0  0  0  0  0  0  0  0  0
   -0.2369    5.5580   -0.2773 C   0  0  0  0  0  0  0  0  0  0  0  0
   -0.9508    6.7479    0.3651 C   0  0  0  0  0  0  0  0  0  0  0  0
    1.8504    6.0045    3.8516 C   0  0  0  0  0  0  0  0  0  0  0  0
    1.4392    5.5197    2.4710 C   0  0  0  0  0  0  0  0  0  0  0  0
    1.6536    6.2480    1.4518 O   0  0  0  0  0  0  0  0  0  0  0  0
    0.8155    4.2530    2.3199 O   0  0  0  0  0  0  0  0  0  0  0  0
   -1.7797    1.8223    4.5310 C   0  0  0  0  0  0  0  0  0  0  0  0
   -0.8951    1.1262    5.2706 C   0  0  0  0  0  0  0  0  0  0  0  0
   -1.1886    0.0921    5.9486 O   0  0  0  0  0  0  0  0  0  0  0  0
    0.3305    1.6580    5.2035 O   0  0  0  0  0  0  0  0  0  0  0  0
    0.5649    0.9324    2.5451 O   0  0  0  0  0  0  0  0  0  0  0  0
   -0.6496    0.0734    2.1855 S   0  0  0  0  0  0  0  0  0  0  0  0
   -1.9987    1.1411    1.6232 C   0  0  0  0  0  0  0  0  0  0  0  0
   -0.2027   -1.0804    0.8644 C   0  0  0  0  0  0  0  0  0  0  0  0
    0.7430    0.1568   -0.9929 H   0  0  0  0  0  0  0  0  0  0  0  0
    0.7430   -0.9519    0.3576 H   0  0  0  0  0  0  0  0  0  0  0  0
    2.1697   -0.0077    0.0024 H   0  0  0  0  0  0  0  0  0  0  0  0
   -1.6703    0.3670    1.4404 H   0  0  0  0  0  0  0  0  0  0  0  0
   -1.6703    2.0909    1.7254 H   0  0  0  0  0  0  0  0  0  0  0  0
   -1.6703    1.4757    0.0899 H   0  0  0  0  0  0  0  0  0  0  0  0
    1.5646    7.6803    0.3098 H   0  0  0  0  0  0  0  0  0  0  0  0
    0.4438    9.0137    0.4475 H   0  0  0  0  0  0  0  0  0  0  0  0
    0.3711    8.0488    0.9994 H   0  0  0  0  0  0  0  0  0  0  0  0
   -1.3651    8.6853    2.5366 H   0  0  0  0  0  0  0  0  0  0  0  0
   -1.8332    7.0114    2.7277 H   0  0  0  0  0  0  0  0  0  0  0  0
   -0.1502    8.5944    4.4172 H   0  0  0  0  0  0  0  0  0  0  0  0
    0.7700    7.2475    3.7881 H   0  0  0  0  0  0  0  0  0  0  0  0
   -1.5236    7.3516    5.4384 H   0  0  0  0  0  0  0  0  0  0  0  0
    0.0844    4.9383    5.6979 H   0  0  0  0  0  0  0  0  0  0  0  0
    0.3251    5.2368    3.9927 H   0  0  0  0  0  0  0  0  0  0  0  0
   -2.1641    4.7566    3.7128 H   0  0  0  0  0  0  0  0  0  0  0  0
   -2.1206    4.1318    5.3470 H   0  0  0  0  0  0  0  0  0  0  0  0
   -0.7472    2.6017    4.8508 H   0  0  0  0  0  0  0  0  0  0  0  0
   -2.0761    2.8446    2.1024 H   0  0  0  0  0  0  0  0  0  0  0  0
   -0.5007    2.0761    2.0680 H   0  0  0  0  0  0  0  0  0  0  0  0
    0.6086    4.1894    1.9510 H   0  0  0  0  0  0  0  0  0  0  0  0
   -0.8694    5.0529    2.2981 H   0  0  0  0  0  0  0  0  0  0  0  0
   -1.2379    3.9741   -0.5475 H   0  0  0  0  0  0  0  0  0  0  0  0
   -0.4149    5.5662   -1.3324 H   0  0  0  0  0  0  0  0  0  0  0  0
    0.8140    5.6301   -0.0890 H   0  0  0  0  0  0  0  0  0  0  0  0
   -1.8973    6.4287    0.7489 H   0  0  0  0  0  0  0  0  0  0  0  0
   -1.1004    7.5118   -0.3690 H   0  0  0  0  0  0  0  0  0  0  0  0
    1.3407    6.9184    4.0752 H   0  0  0  0  0  0  0  0  0  0  0  0
    1.5928    5.2649    4.5807 H   0  0  0  0  0  0  0  0  0  0  0  0
   -2.6050    2.1634    5.1204 H   0  0  0  0  0  0  0  0  0  0  0  0
   -2.1819    1.2068    3.7536 H   0  0  0  0  0  0  0  0  0  0  0  0
   -1.6829    1.6908    0.7613 H   0  0  0  0  0  0  0  0  0  0  0  0
   -2.8478    0.5405    1.3718 H   0  0  0  0  0  0  0  0  0  0  0  0
   -2.2629    1.8231    2.4042 H   0  0  0  0  0  0  0  0  0  0  0  0
    0.1131   -0.5306    0.0025 H   0  0  0  0  0  0  0  0  0  0  0  0
    0.5948   -1.7116    1.1968 H   0  0  0  0  0  0  0  0  0  0  0  0
   -1.0518   -1.6810    0.6130 H   0  0  0  0  0  0  0  0  0  0  0  0
  1  2  1  0  0  0  0
  1 34  1  0  0  0  0
  1 35  1  0  0  0  0
  1 36  1  0  0  0  0
  2  3  1  0  0  0  0
  2  4  2  0  0  0  0
  3 37  1  0  0  0  0
  3 38  1  0  0  0  0
  3 39  1  0  0  0  0
  4  5  1  0  0  0  0
  5  6  1  0  0  0  0
  5 10  1  0  0  0  0
  5 13  1  0  0  0  0
  5 16  1  0  0  0  0
  5 19  1  0  0  0  0
  5 25  1  0  0  0  0
  5 29  1  0  0  0  0
  5 30  1  0  0  0  0
  6  7  1  0  0  0  0
  7  8  2  0  0  0  0
  7  9  1  0  0  0  0
  9 10  1  0  0  0  0
  9 40  1  0  0  0  0
  9 41  1  0  0  0  0
 10 11  1  0  0  0  0
 10 21  1  0  0  0  0
 10 42  1  0  0  0  0
 11 12  1  0  0  0  0
 11 43  1  0  0  0  0
 11 44  1  0  0  0  0
 12 13  1  0  0  0  0
 12 45  1  0  0  0  0
 12 46  1  0  0  0  0
 13 14  1  0  0  0  0
 13 47  1  0  0  0  0
 14 15  1  0  0  0  0
 14 48  1  0  0  0  0
 14 49  1  0  0  0  0
 15 16  1  0  0  0  0
 15 50  1  0  0  0  0
 15 51  1  0  0  0  0
 16 17  1  0  0  0  0
 16 26  1  0  0  0  0
 16 52  1  0  0  0  0
 17 18  1  0  0  0  0
 17 53  1  0  0  0  0
 17 54  1  0  0  0  0
 18 19  1  0  0  0  0
 18 55  1  0  0  0  0
 18 56  1  0  0  0  0
 19 20  1  0  0  0  0
 19 22  1  0  0  0  0
 19 57  1  0  0  0  0
 20 21  1  0  0  0  0
 20 58  1  0  0  0  0
 20 59  1  0  0  0  0
 21 60  1  0  0  0  0
 21 61  1  0  0  0  0
 22 23  1  0  0  0  0
 22 62  1  0  0  0  0
 22 63  1  0  0  0  0
 23 24  2  0  0  0  0
 23 25  1  0  0  0  0
 26 27  1  0  0  0  0
 26 64  1  0  0  0  0
 26 65  1  0  0  0  0
 27 28  2  0  0  0  0
 27 29  1  0  0  0  0
 30 31  2  0  0  0  0
 31 32  1  0  0  0  0
 31 33  1  0  0  0  0
 32 66  1  0  0  0  0
 32 67  1  0  0  0  0
 32 68  1  0  0  0  0
 33 69  1  0  0  0  0
 33 70  1  0  0  0  0
 33 71  1  0  0  0  0
M  CHG  1   5   1
M  END
$$$$
