
 OpenBabel09252513463D

 36 38  0  0  1  0  0  0  0  0999 V2000
   10.9677   -1.7333   -3.3360 H   0  0  0  0  0  0  0  0  0  0  0  0
   10.5442   -0.8459   -2.9141 C   0  0  0  0  0  0  0  0  0  0  0  0
   11.1821   -0.0938   -2.4989 H   0  0  0  0  0  0  0  0  0  0  0  0
    9.1947   -0.6737   -2.9057 C   0  0  0  0  0  0  0  0  0  0  0  0
    8.5568   -1.4257   -3.3210 H   0  0  0  0  0  0  0  0  0  0  0  0
    8.5932    0.5870   -2.3064 C   0  0  1  0  0  0  0  0  0  0  0  0
    8.8693    0.6585   -1.2752 H   0  0  0  0  0  0  0  0  0  0  0  0
    9.1138    1.8026   -3.0559 C   0  0  0  0  0  0  0  0  0  0  0  0
    8.8376    1.7310   -4.0871 H   0  0  0  0  0  0  0  0  0  0  0  0
    8.6903    2.6900   -2.6340 H   0  0  0  0  0  0  0  0  0  0  0  0
   10.1799    1.8424   -2.9740 H   0  0  0  0  0  0  0  0  0  0  0  0
    7.0787    0.5304   -2.4227 C   0  0  1  0  0  0  0  0  0  0  0  0
    6.8025    0.4589   -3.4539 H   0  0  0  0  0  0  0  0  0  0  0  0
    6.5752   -0.6452   -1.6979 N   0  0  0  0  0  0  0  0  0  0  0  0
    6.9528   -1.8104   -2.0367 N   0  0  0  0  0  4  0  0  0  0  0  0
    7.3305   -2.9756   -2.3756 N   0  0  0  0  0  0  0  0  0  0  0  0
    6.3637    1.7419   -1.8468 C   0  0  2  0  0  0  0  0  0  0  0  0
    5.2937    1.7419   -1.8468 H   0  0  0  0  0  0  0  0  0  0  0  0
    7.1342    2.7679   -1.5263 C   0  0  1  0  0  0  0  0  0  0  0  0
    8.1052    2.8908   -1.9586 H   0  0  0  0  0  0  0  0  0  0  0  0
    8.5328    2.2886   -1.6756 C   0  0  1  0  0  0  0  0  0  0  0  0
    8.2068    3.3049   -1.5998 H   0  0  0  0  0  0  0  0  0  0  0  0
    8.4438    1.0275   -2.0636 C   0  0  2  0  0  0  0  0  0  0  0  0
    9.2696    0.3756   -2.2588 H   0  0  0  0  0  0  0  0  0  0  0  0
    7.1930    1.7067   -2.5970 C   0  0  0  0  0  0  0  0  0  0  0  0
    6.9743    2.5666   -1.9990 H   0  0  0  0  0  0  0  0  0  0  0  0
    7.3736    2.0111   -3.6068 H   0  0  0  0  0  0  0  0  0  0  0  0
    6.3620    1.0332   -2.5707 H   0  0  0  0  0  0  0  0  0  0  0  0
    7.1460    0.7001   -2.1722 Fe  0  0  0  0  0  0  0  0  0  0  0  0
    6.2907   -1.0121   -2.9866 C   0  0  0  0  0  0  0  0  0  0  0  0
    5.7899   -2.0147   -3.4636 O   0  0  0  0  0  0  0  0  0  0  0  0
    8.9377    1.5451   -2.8065 C   0  0  0  0  0  0  0  0  0  0  0  0
    9.9869    2.0399   -3.1780 O   0  0  0  0  0  0  0  0  0  0  0  0
    8.1839    2.2882   -1.3195 C   0  0  0  0  0  0  0  0  0  0  0  0
    8.7917    3.2182   -0.8201 O   0  0  0  0  0  0  0  0  0  0  0  0
    6.6971   -3.5875   -2.8901 H   0  0  0  0  0  0  0  0  0  0  0  0
  1  2  1  0  0  0  0
  2  3  1  0  0  0  0
  2  4  2  0  0  0  0
  4  5  1  0  0  0  0
  4  6  1  0  0  0  0
  6  7  1  1  0  0  0
  6  8  1  0  0  0  0
  6 12  1  0  0  0  0
  8  9  1  0  0  0  0
  8 10  1  0  0  0  0
  8 11  1  0  0  0  0
 12 13  1  6  0  0  0
 12 14  1  0  0  0  0
 14 15  2  0  0  0  0
 15 16  2  0  0  0  0
 16 36  1  0  0  0  0
 17 19  2  0  0  0  0
 17 29  1  0  0  0  0
 17 18  1  1  0  0  0
 17 12  1  0  0  0  0
 19 20  1  6  0  0  0
 19 21  1  0  0  0  0
 19 29  1  0  0  0  0
 21 22  1  6  0  0  0
 21 23  2  0  0  0  0
 21 29  1  0  0  0  0
 23 29  1  0  0  0  0
 23 25  1  0  0  0  0
 23 24  1  6  0  0  0
 25 26  1  0  0  0  0
 25 27  1  0  0  0  0
 25 28  1  0  0  0  0
 29 30  1  0  0  0  0
 29 32  1  0  0  0  0
 29 34  1  0  0  0  0
 30 31  3  0  0  0  0
 32 33  3  0  0  0  0
 34 35  3  0  0  0  0
M  END
$$$$
