
     RDKit          3D

  0  0  0  0  0  0  0  0  0  0999 V3000
M  V30 BEGIN CTAB
M  V30 COUNTS 114 121 0 0 0
M  V30 BEGIN ATOM
M  V30 1 C -5.102903 1.585210 -0.574535 0
M  V30 2 C -4.856608 0.849542 0.554669 0
M  V30 3 C -3.620456 0.240303 0.874278 0
M  V30 4 C -3.919057 -0.484578 2.088807 0
M  V30 5 C -4.923874 0.286433 3.013898 0
M  V30 6 C -4.885637 -1.629071 1.590961 0
M  V30 7 C -2.619676 0.453440 -0.086794 0
M  V30 8 N -1.226291 0.102661 0.292942 0
M  V30 9 C -0.518143 1.361960 0.467710 0
M  V30 10 C 0.761448 1.243631 0.208714 0
M  V30 11 C 1.313649 2.594368 0.421784 0
M  V30 12 C 2.504709 3.240401 0.326619 0
M  V30 13 C 2.771817 4.562871 0.577657 0
M  V30 14 C 1.728022 5.389666 0.979308 0
M  V30 15 C 0.472605 4.843493 1.103984 0
M  V30 16 C -0.656044 5.537257 1.479475 0
M  V30 17 C -1.842573 4.833172 1.540155 0
M  V30 18 C -1.938878 3.498617 1.244467 0
M  V30 19 C -0.810621 2.785750 0.863662 0
M  V30 20 C 0.349080 3.521935 0.823468 0
M  V30 21 N 1.111235 -0.100395 -0.103653 0
M  V30 22 C 2.281081 -0.223448 -0.990625 0
M  V30 23 C 2.295937 -0.516770 -2.374320 0
M  V30 24 C 1.056116 -0.355680 -3.107568 0
M  V30 25 C 1.085079 -1.193946 -4.366091 0
M  V30 26 C 1.102068 1.097029 -3.709307 0
M  V30 27 C 3.334633 -0.821771 -3.170929 0
M  V30 28 C 4.587687 -0.870821 -2.637873 0
M  V30 29 C 4.652294 -0.579393 -1.255799 0
M  V30 30 C 3.570798 -0.246804 -0.363387 0
M  V30 31 C 4.335020 0.122605 0.794053 0
M  V30 32 C 5.359073 -0.967112 1.173963 0
M  V30 33 C 5.318880 1.290170 0.421799 0
M  V30 34 Eu -0.098257 -1.520421 0.795988 0 VAL=7
M  V30 35 N -1.809550 -2.371417 1.397705 0
M  V30 36 C -2.221713 -3.446473 1.798144 0
M  V30 37 S -2.697267 -4.704051 2.532993 0
M  V30 38 O 1.197950 -1.898488 2.249150 0
M  V30 39 C 2.129305 -1.182104 2.787430 0
M  V30 40 C 0.721736 -2.863266 3.263033 0
M  V30 41 C 0.080581 -1.779703 4.022472 0
M  V30 42 O -0.519909 -1.198882 2.824714 0
M  V30 43 C -0.815838 0.060619 3.236924 0
M  V30 44 O -0.738750 -2.749974 -0.642939 0
M  V30 45 C -1.537811 -2.339503 -1.651047 0
M  V30 46 C -0.293670 -4.033112 -1.172429 0
M  V30 47 C 0.318717 -4.330680 0.138058 0
M  V30 48 O 1.001429 -3.043432 0.183165 0
M  V30 49 C 2.143740 -3.217428 -0.467871 0
M  V30 50 C -2.898267 1.183388 -1.191619 0
M  V30 51 C -1.975293 1.429102 -2.342638 0
M  V30 52 C -2.250314 2.785206 -3.000312 0
M  V30 53 C -2.417454 0.422917 -3.430824 0
M  V30 54 C -4.095053 1.754788 -1.470689 0
M  V30 55 H -6.045387 2.047288 -0.824426 0
M  V30 56 H -5.806613 0.849366 1.122983 0
M  V30 57 H -3.215906 -0.970416 2.685902 0
M  V30 58 H -4.762325 1.363066 2.780982 0
M  V30 59 H -4.569575 0.066433 4.044879 0
M  V30 60 H -5.913137 -0.071441 2.802150 0
M  V30 61 H -4.864039 -2.445610 2.319329 0
M  V30 62 H -5.901693 -1.189571 1.462260 0
M  V30 63 H -4.558685 -1.910989 0.584198 0
M  V30 64 H 3.183304 2.521243 -0.044053 0
M  V30 65 H 3.783785 4.939736 0.464807 0
M  V30 66 H 1.850947 6.436582 1.199716 0
M  V30 67 H -0.582918 6.570529 1.707207 0
M  V30 68 H -2.783886 5.285360 1.824410 0
M  V30 69 H -2.818652 2.873349 1.264898 0
M  V30 70 H 0.158665 -0.455631 -2.599041 0
M  V30 71 H 0.050497 -1.488485 -4.695115 0
M  V30 72 H 1.582477 -0.681260 -5.206456 0
M  V30 73 H 1.644228 -2.166703 -4.218937 0
M  V30 74 H 0.283821 1.165417 -4.428433 0
M  V30 75 H 1.136778 1.817039 -2.902792 0
M  V30 76 H 2.039096 1.130765 -4.306551 0
M  V30 77 H 3.249983 -1.028221 -4.222612 0
M  V30 78 H 5.404000 -1.122329 -3.293633 0
M  V30 79 H 5.740465 -0.672446 -1.050467 0
M  V30 80 H 3.854286 0.482045 1.648305 0
M  V30 81 H 6.305160 -0.745708 0.721076 0
M  V30 82 H 5.407519 -1.029553 2.297362 0
M  V30 83 H 4.966427 -1.918033 0.753754 0
M  V30 84 H 5.109542 2.134781 1.079295 0
M  V30 85 H 5.182157 1.586820 -0.631473 0
M  V30 86 H 6.315931 0.920783 0.640273 0
M  V30 87 H 2.014623 -0.692937 3.744038 0
M  V30 88 H 3.124078 -1.568289 2.665442 0
M  V30 89 H 2.090418 -0.182310 2.135743 0
M  V30 90 H 0.030800 -3.496448 2.738681 0
M  V30 91 H 1.640834 -3.281992 3.649289 0
M  V30 92 H 0.641180 -1.063996 4.475681 0
M  V30 93 H -0.838237 -2.134650 4.583802 0
M  V30 94 H -1.500782 -0.105392 4.092976 0
M  V30 95 H -1.404634 0.606663 2.517643 0
M  V30 96 H 0.042458 0.623771 3.651500 0
M  V30 97 H -2.421848 -3.017366 -1.809130 0
M  V30 98 H -0.972794 -2.416291 -2.570851 0
M  V30 99 H -1.798052 -1.306986 -1.467890 0
M  V30 100 H -1.203673 -4.615206 -1.399778 0
M  V30 101 H 0.323628 -3.752960 -1.972060 0
M  V30 102 H -0.313271 -4.549496 0.942918 0
M  V30 103 H 1.153373 -5.020976 -0.039632 0
M  V30 104 H 2.856991 -2.453810 -0.487520 0
M  V30 105 H 2.051834 -3.792729 -1.421203 0
M  V30 106 H 2.674999 -4.026123 0.197308 0
M  V30 107 H -1.005759 1.240342 -2.020664 0
M  V30 108 H -2.666820 3.522652 -2.314928 0
M  V30 109 H -1.244813 3.089306 -3.413326 0
M  V30 110 H -2.914925 2.662447 -3.856279 0
M  V30 111 H -2.975575 1.035567 -4.205812 0
M  V30 112 H -3.211897 -0.263659 -3.045764 0
M  V30 113 H -1.622591 -0.064712 -3.949906 0
M  V30 114 H -4.270590 2.323559 -2.360969 0
M  V30 END ATOM
M  V30 BEGIN BOND
M  V30 1 2 1 2
M  V30 2 1 2 3
M  V30 3 1 3 4
M  V30 4 1 4 5
M  V30 5 1 4 6
M  V30 6 2 3 7
M  V30 7 1 7 8
M  V30 8 1 8 9
M  V30 9 2 9 10
M  V30 10 1 10 11
M  V30 11 2 11 12
M  V30 12 1 12 13
M  V30 13 2 13 14
M  V30 14 1 14 15
M  V30 15 2 15 16
M  V30 16 1 16 17
M  V30 17 2 17 18
M  V30 18 1 18 19
M  V30 19 2 19 20
M  V30 20 1 10 21
M  V30 21 1 21 22
M  V30 22 2 22 23
M  V30 23 1 23 24
M  V30 24 1 24 25
M  V30 25 1 24 26
M  V30 26 1 23 27
M  V30 27 2 27 28
M  V30 28 1 28 29
M  V30 29 2 29 30
M  V30 30 1 30 31
M  V30 31 1 31 32
M  V30 32 1 31 33
M  V30 33 1 21 34
M  V30 34 1 34 35
M  V30 35 2 35 36
M  V30 36 2 36 37
M  V30 37 9 38 34
M  V30 38 1 38 39
M  V30 39 1 38 40
M  V30 40 1 40 41
M  V30 41 1 41 42
M  V30 42 1 42 43
M  V30 43 9 44 34
M  V30 44 1 44 45
M  V30 45 1 44 46
M  V30 46 1 46 47
M  V30 47 1 47 48
M  V30 48 1 48 49
M  V30 49 1 7 50
M  V30 50 1 50 51
M  V30 51 1 51 52
M  V30 52 1 51 53
M  V30 53 2 50 54
M  V30 54 1 54 1
M  V30 55 1 34 8
M  V30 56 1 19 9
M  V30 57 1 30 22
M  V30 58 9 42 34
M  V30 59 1 20 11
M  V30 60 9 48 34
M  V30 61 1 20 15
M  V30 62 1 1 55
M  V30 63 1 2 56
M  V30 64 1 4 57
M  V30 65 1 5 58
M  V30 66 1 5 59
M  V30 67 1 5 60
M  V30 68 1 6 61
M  V30 69 1 6 62
M  V30 70 1 6 63
M  V30 71 1 12 64
M  V30 72 1 13 65
M  V30 73 1 14 66
M  V30 74 1 16 67
M  V30 75 1 17 68
M  V30 76 1 18 69
M  V30 77 1 24 70
M  V30 78 1 25 71
M  V30 79 1 25 72
M  V30 80 1 25 73
M  V30 81 1 26 74
M  V30 82 1 26 75
M  V30 83 1 26 76
M  V30 84 1 27 77
M  V30 85 1 28 78
M  V30 86 1 29 79
M  V30 87 1 31 80
M  V30 88 1 32 81
M  V30 89 1 32 82
M  V30 90 1 32 83
M  V30 91 1 33 84
M  V30 92 1 33 85
M  V30 93 1 33 86
M  V30 94 1 39 87
M  V30 95 1 39 88
M  V30 96 1 39 89
M  V30 97 1 40 90
M  V30 98 1 40 91
M  V30 99 1 41 92
M  V30 100 1 41 93
M  V30 101 1 43 94
M  V30 102 1 43 95
M  V30 103 1 43 96
M  V30 104 1 45 97
M  V30 105 1 45 98
M  V30 106 1 45 99
M  V30 107 1 46 100
M  V30 108 1 46 101
M  V30 109 1 47 102
M  V30 110 1 47 103
M  V30 111 1 49 104
M  V30 112 1 49 105
M  V30 113 1 49 106
M  V30 114 1 51 107
M  V30 115 1 52 108
M  V30 116 1 52 109
M  V30 117 1 52 110
M  V30 118 1 53 111
M  V30 119 1 53 112
M  V30 120 1 53 113
M  V30 121 1 54 114
M  V30 END BOND
M  V30 END CTAB
M  END
