
 OpenBabel09252513333D

 80 84  0  0  0  0  0  0  0  0999 V2000
    1.0975    0.0114   -0.0190 Cl  0  0  0  0  0  0  0  0  0  0  0  0
    3.5775    0.0114   -0.0190 Ru  0  0  0  0  0  0  0  0  0  0  0  0
    3.9485    0.7135   -1.0478 C   0  0  0  0  0  0  0  0  0  0  0  0
    4.3897    0.0428   -2.2708 C   0  0  0  0  0  0  0  0  0  0  0  0
    4.7963    0.7597   -3.3981 C   0  0  0  0  0  0  0  0  0  0  0  0
    5.2067    0.0882   -4.5154 C   0  0  0  0  0  0  0  0  0  0  0  0
    5.2139   -1.3004   -4.5499 C   0  0  0  0  0  0  0  0  0  0  0  0
    4.8173   -2.0337   -3.4533 C   0  0  0  0  0  0  0  0  0  0  0  0
    4.4003   -1.3698   -2.3003 C   0  0  0  0  0  0  0  0  0  0  0  0
    3.9669   -2.0940   -1.0988 C   0  0  0  0  0  0  0  0  0  0  0  0
    2.7049   -2.8176   -1.5393 C   0  0  0  0  0  0  0  0  0  0  0  0
    3.5775   -1.3838   -0.0190 N   0  0  0  0  0  0  0  0  0  0  0  0
    2.5436   -2.4117   -0.2070 C   0  0  0  0  0  0  0  0  0  0  0  0
    2.1432   -1.6962    0.0596 C   0  0  0  0  0  0  0  0  0  0  0  0
    4.8175    0.0114    2.1287 Cl  0  0  0  0  0  0  0  0  0  0  0  0
    4.6875    0.0114   -1.9416 C   0  0  0  0  0  3  0  0  0  0  0  0
    5.9917   -0.8148   -1.8226 N   0  0  0  0  0  0  0  0  0  0  0  0
    6.2867   -1.1980   -3.2972 C   0  0  0  0  0  0  0  0  0  0  0  0
    4.8949   -1.4791   -3.9015 C   0  0  0  0  0  0  0  0  0  0  0  0
    3.8784   -0.7100   -3.0392 N   0  0  0  0  0  0  0  0  0  0  0  0
    2.4208   -0.6706   -3.2252 C   0  0  0  0  0  0  0  0  0  0  0  0
    1.6779   -1.8329   -3.1714 C   0  0  0  0  0  0  0  0  0  0  0  0
    2.3754   -3.1595   -2.9177 C   0  0  0  0  0  0  0  0  0  0  0  0
    0.3650   -1.8052   -3.3381 C   0  0  0  0  0  0  0  0  0  0  0  0
   -0.2822   -0.6724   -3.5550 C   0  0  0  0  0  0  0  0  0  0  0  0
   -1.7916   -0.6920   -3.7333 C   0  0  0  0  0  0  0  0  0  0  0  0
    0.3975    0.5285   -3.6213 C   0  0  0  0  0  0  0  0  0  0  0  0
    1.7750    0.5354   -3.4570 C   0  0  0  0  0  0  0  0  0  0  0  0
    2.5595    1.8352   -3.5294 C   0  0  0  0  0  0  0  0  0  0  0  0
    6.7587   -1.1519   -0.6147 C   0  0  0  0  0  0  0  0  0  0  0  0
    8.0578   -0.7129   -0.4546 C   0  0  0  0  0  0  0  0  0  0  0  0
    8.7232    0.0856   -1.5637 C   0  0  0  0  0  0  0  0  0  0  0  0
    8.7303   -0.9795    0.6540 C   0  0  0  0  0  0  0  0  0  0  0  0
    8.1875   -1.6656    1.6457 C   0  0  0  0  0  0  0  0  0  0  0  0
    8.9987   -1.9399    2.9015 C   0  0  0  0  0  0  0  0  0  0  0  0
    6.8918   -2.1359    1.5538 C   0  0  0  0  0  0  0  0  0  0  0  0
    6.1599   -1.8799    0.4034 C   0  0  0  0  0  0  0  0  0  0  0  0
    4.7336   -2.3857    0.2614 C   0  0  0  0  0  0  0  0  0  0  0  0
    3.9312    1.7823   -1.0002 H   0  0  0  0  0  0  0  0  0  0  0  0
    4.7865    1.8296   -3.3872 H   0  0  0  0  0  0  0  0  0  0  0  0
    5.5267    0.6394   -5.3748 H   0  0  0  0  0  0  0  0  0  0  0  0
    5.5309   -1.8060   -5.4380 H   0  0  0  0  0  0  0  0  0  0  0  0
    4.8292   -3.1032   -3.4861 H   0  0  0  0  0  0  0  0  0  0  0  0
    4.7847   -2.7117   -0.7913 H   0  0  0  0  0  0  0  0  0  0  0  0
    2.9282   -3.4476   -2.3749 H   0  0  0  0  0  0  0  0  0  0  0  0
    2.3354   -3.4142   -0.7315 H   0  0  0  0  0  0  0  0  0  0  0  0
    1.9627   -2.1005   -1.8216 H   0  0  0  0  0  0  0  0  0  0  0  0
    4.1864   -1.6705    0.7474 H   0  0  0  0  0  0  0  0  0  0  0  0
    2.0395   -2.5844    0.7209 H   0  0  0  0  0  0  0  0  0  0  0  0
    1.8383   -2.0784   -0.9394 H   0  0  0  0  0  0  0  0  0  0  0  0
    3.0003   -3.3205   -0.5393 H   0  0  0  0  0  0  0  0  0  0  0  0
    2.0121   -2.7560    0.1262 H   0  0  0  0  0  0  0  0  0  0  0  0
    1.7236   -1.2297    0.9263 H   0  0  0  0  0  0  0  0  0  0  0  0
    1.6500   -1.3302   -0.8165 H   0  0  0  0  0  0  0  0  0  0  0  0
    6.9456   -2.0371   -3.3785 H   0  0  0  0  0  0  0  0  0  0  0  0
    6.7670   -0.3910   -3.8101 H   0  0  0  0  0  0  0  0  0  0  0  0
    4.6812   -2.5275   -3.9075 H   0  0  0  0  0  0  0  0  0  0  0  0
    4.8555   -1.1350   -4.9139 H   0  0  0  0  0  0  0  0  0  0  0  0
    1.9881   -3.6007   -2.0232 H   0  0  0  0  0  0  0  0  0  0  0  0
    2.2021   -3.8172   -3.7438 H   0  0  0  0  0  0  0  0  0  0  0  0
    3.4268   -2.9943   -2.8078 H   0  0  0  0  0  0  0  0  0  0  0  0
   -0.1860   -2.7214   -3.2965 H   0  0  0  0  0  0  0  0  0  0  0  0
   -2.0434   -1.3031   -4.5747 H   0  0  0  0  0  0  0  0  0  0  0  0
   -2.2496   -1.0913   -2.8525 H   0  0  0  0  0  0  0  0  0  0  0  0
   -2.1442    0.3047   -3.8981 H   0  0  0  0  0  0  0  0  0  0  0  0
   -0.1317    1.4417   -3.7971 H   0  0  0  0  0  0  0  0  0  0  0  0
    2.4188    2.2837   -4.4907 H   0  0  0  0  0  0  0  0  0  0  0  0
    2.2125    2.5040   -2.7697 H   0  0  0  0  0  0  0  0  0  0  0  0
    3.5994    1.6331   -3.3789 H   0  0  0  0  0  0  0  0  0  0  0  0
    9.0053    1.0479   -1.1904 H   0  0  0  0  0  0  0  0  0  0  0  0
    9.5942   -0.4343   -1.9042 H   0  0  0  0  0  0  0  0  0  0  0  0
    8.0385    0.2053   -2.3772 H   0  0  0  0  0  0  0  0  0  0  0  0
    9.7376   -0.6315    0.7499 H   0  0  0  0  0  0  0  0  0  0  0  0
    9.8750   -2.4980    2.6453 H   0  0  0  0  0  0  0  0  0  0  0  0
    9.2855   -1.0121    3.3507 H   0  0  0  0  0  0  0  0  0  0  0  0
    8.4068   -2.5028    3.5927 H   0  0  0  0  0  0  0  0  0  0  0  0
    6.4582   -2.6906    2.3596 H   0  0  0  0  0  0  0  0  0  0  0  0
    4.7251   -3.4533    0.3323 H   0  0  0  0  0  0  0  0  0  0  0  0
    4.1291   -1.9716    1.0412 H   0  0  0  0  0  0  0  0  0  0  0  0
    4.3426   -2.0882   -0.6891 H   0  0  0  0  0  0  0  0  0  0  0  0
  1  2  1  0  0  0  0
  2  3  2  0  0  0  0
  2 12  1  0  0  0  0
  2 15  1  0  0  0  0
  2 16  1  0  0  0  0
  3  4  1  0  0  0  0
  3 39  1  0  0  0  0
  4  5  1  0  0  0  0
  4  9  2  0  0  0  0
  5  6  2  0  0  0  0
  5 40  1  0  0  0  0
  6  7  1  0  0  0  0
  6 41  1  0  0  0  0
  7  8  2  0  0  0  0
  7 42  1  0  0  0  0
  8  9  1  0  0  0  0
  8 43  1  0  0  0  0
  9 10  1  0  0  0  0
 10 11  1  0  0  0  0
 10 12  1  0  0  0  0
 10 44  1  0  0  0  0
 11 45  1  0  0  0  0
 11 46  1  0  0  0  0
 11 47  1  0  0  0  0
 12 13  1  0  0  0  0
 12 14  1  0  0  0  0
 12 48  1  0  0  0  0
 13 49  1  0  0  0  0
 13 50  1  0  0  0  0
 13 51  1  0  0  0  0
 14 52  1  0  0  0  0
 14 53  1  0  0  0  0
 14 54  1  0  0  0  0
 16 17  1  0  0  0  0
 16 20  1  0  0  0  0
 17 18  1  0  0  0  0
 17 30  1  0  0  0  0
 18 19  1  0  0  0  0
 18 55  1  0  0  0  0
 18 56  1  0  0  0  0
 19 20  1  0  0  0  0
 19 57  1  0  0  0  0
 19 58  1  0  0  0  0
 20 21  1  0  0  0  0
 21 22  1  0  0  0  0
 21 28  2  0  0  0  0
 22 23  1  0  0  0  0
 22 24  2  0  0  0  0
 23 59  1  0  0  0  0
 23 60  1  0  0  0  0
 23 61  1  0  0  0  0
 24 25  1  0  0  0  0
 24 62  1  0  0  0  0
 25 26  1  0  0  0  0
 25 27  2  0  0  0  0
 26 63  1  0  0  0  0
 26 64  1  0  0  0  0
 26 65  1  0  0  0  0
 27 28  1  0  0  0  0
 27 66  1  0  0  0  0
 28 29  1  0  0  0  0
 29 67  1  0  0  0  0
 29 68  1  0  0  0  0
 29 69  1  0  0  0  0
 30 31  1  0  0  0  0
 30 37  2  0  0  0  0
 31 32  1  0  0  0  0
 31 33  2  0  0  0  0
 32 70  1  0  0  0  0
 32 71  1  0  0  0  0
 32 72  1  0  0  0  0
 33 34  1  0  0  0  0
 33 73  1  0  0  0  0
 34 35  1  0  0  0  0
 34 36  2  0  0  0  0
 35 74  1  0  0  0  0
 35 75  1  0  0  0  0
 35 76  1  0  0  0  0
 36 37  1  0  0  0  0
 36 77  1  0  0  0  0
 37 38  1  0  0  0  0
 38 78  1  0  0  0  0
 38 79  1  0  0  0  0
 38 80  1  0  0  0  0
M  END
$$$$
