
  --CCDC--092525    3D                              

 36 38  0  0  0  0  0  0  0  0999 V2000
    1.6751   -1.6735   -1.6025 H      0
    2.1438   -0.7480   -1.2854 C      0
    3.1632   -0.5264   -1.5836 H      0
    1.4864    0.1002   -0.5431 C      0
    2.0095    1.0062   -0.2556 H      0
    0.0828   -0.0429   -0.0470 C      0
   -0.2735   -0.9903   -0.4952 H      0
   -0.0690   -0.2559    1.4617 C      0
    0.5004   -1.1274    1.7797 H      0
   -1.1126   -0.4345    1.7187 H      0
    0.2782    0.6015    2.0338 H      0
   -0.7500    1.1786   -0.4908 C      0
   -1.7752    0.9875   -0.1178 H      0
   -0.1825    2.4778   -0.0175 N      0
   -0.8744    3.4005    0.4266 N      0
   -1.3283    4.4065    0.9766 N      0
   -0.9105    1.3654   -1.9821 C      0
    0.0192    1.2696   -2.5789 H      0
   -1.7486    2.4694   -2.4120 C      0
   -2.2091    2.8947   -1.4989 H      0
   -2.9210    2.5681   -3.5886 C      0
   -3.7785    3.0506   -3.0813 H      0
   -3.4827    1.5729   -4.4896 C      0
   -2.9264    1.4778   -5.4452 H      0
   -4.9923    1.5346   -4.6158 C      0
   -5.4827    1.5891   -3.6442 H      0
   -5.3277    0.6214   -5.1026 H      0
   -5.3439    2.3781   -5.2079 H      0
   -2.6513    0.5354   -2.8489 Fe     0
   -2.2545   -1.2331   -4.0972 C      0
   -2.0479   -2.1519   -4.7381 O      0
   -2.3320   -1.1802   -1.5107 C      0
   -2.1691   -2.0800   -0.8298 O      0
   -4.5535   -0.2753   -2.0984 C      0
   -5.5403   -0.6959   -1.7090 O      0
   -2.2774    4.6220    0.6737 H      0
  1  2  1
  2  3  1
  2  4  2
  4  5  1
  4  6  1
  6  7  1
  6  8  1
  8  9  1
  8 10  1
  8 11  1
  6 12  1
 12 13  1
 12 14  1
 14 15  2
 15 16  2
 12 17  1
 17 18  1
 17 19  2
 19 20  1
 19 21  1
 21 22  1
 21 23  2
 23 24  1
 23 25  1
 25 26  1
 25 27  1
 25 28  1
 23 29  1
 21 29  1
 19 29  1
 17 29  1
 29 30  1
 30 31  3
 29 32  1
 32 33  3
 29 34  1
 34 35  3
 16 36  1
M  END
$$$$
