
 OpenBabel09252519013D

 35 38  0  0  0  0  0  0  0  0999 V2000
    1.1471   -0.4059    0.0441 F   0  0  0  0  0  0  0  0  0  0  0  0
    2.4972   -0.2355    0.0733 C   0  0  0  0  0  0  0  0  0  0  0  0
    2.9710   -1.1612    0.9537 F   0  0  0  0  0  0  0  0  0  0  0  0
    2.9487   -0.6249   -1.1522 F   0  0  0  0  0  0  0  0  0  0  0  0
    2.9083    1.1764    0.4061 C   0  0  0  0  0  0  0  0  0  0  0  0
    3.8891    1.4474    1.3682 C   0  0  0  0  0  0  0  0  0  0  0  0
    4.2943    2.7608    1.6102 C   0  0  0  0  0  0  0  0  0  0  0  0
    3.7319    3.8170    0.8883 C   0  0  0  0  0  0  0  0  0  0  0  0
    2.7207    3.5690   -0.0404 C   0  0  0  0  0  0  0  0  0  0  0  0
    2.3204    2.2502   -0.2800 C   0  0  0  0  0  0  0  0  0  0  0  0
    2.0661    4.6376   -0.7054 N   0  0  0  0  0  0  0  0  0  0  0  0
    3.0961    5.9454   -1.2763 C   0  0  0  0  0  0  0  0  0  0  0  0
    2.2267    7.1370   -2.2141 C   0  0  0  0  0  0  0  0  0  0  0  0
    2.2541    8.7312   -1.4551 Cl  0  0  0  0  0  0  0  0  0  0  0  0
    1.7343    7.2609   -3.5709 O   0  0  0  0  0  0  0  0  0  0  0  0
    0.6820    6.2691   -3.8379 C   0  0  0  0  0  0  0  0  0  0  0  0
    0.2659    6.1007   -5.6898 Br  0  0  0  0  0  0  0  0  0  0  0  0
   -0.6355    6.2953   -2.9786 C   0  0  0  0  0  0  0  0  0  0  0  0
   -0.2025    5.9718   -1.5413 C   0  0  0  0  0  0  0  0  0  0  0  0
    1.1601    6.3025   -1.7947 C   0  0  0  0  0  0  0  0  0  0  0  0
    1.3036    5.1593   -3.1038 C   0  0  0  0  0  0  0  0  0  0  0  0
    3.0968    4.4286   -4.1022 I   0  0  0  0  0  0  0  0  0  0  0  0
    0.4851    4.6122   -0.7999 C   0  0  0  0  0  0  0  0  0  0  0  0
   -0.2189    3.6964   -0.3927 O   0  0  0  0  0  0  0  0  0  0  0  0
    4.3393    0.6354    1.9375 H   0  0  0  0  0  0  0  0  0  0  0  0
    5.0383    2.9641    2.3772 H   0  0  0  0  0  0  0  0  0  0  0  0
    4.0403    4.8288    1.1309 H   0  0  0  0  0  0  0  0  0  0  0  0
    1.5556    2.0386   -1.0266 H   0  0  0  0  0  0  0  0  0  0  0  0
    3.4333    6.4261   -0.3477 H   0  0  0  0  0  0  0  0  0  0  0  0
    3.9696    5.5178   -1.7669 H   0  0  0  0  0  0  0  0  0  0  0  0
   -1.3737    5.5549   -3.3114 H   0  0  0  0  0  0  0  0  0  0  0  0
   -1.0889    7.2923   -3.0233 H   0  0  0  0  0  0  0  0  0  0  0  0
   -0.7237    6.5712   -0.7881 H   0  0  0  0  0  0  0  0  0  0  0  0
    1.3070    6.4838   -0.6984 H   0  0  0  0  0  0  0  0  0  0  0  0
    0.6419    4.2805   -3.0594 H   0  0  0  0  0  0  0  0  0  0  0  0
  1  2  1  0  0  0  0
  2  3  1  0  0  0  0
  2  4  1  0  0  0  0
  2  5  1  0  0  0  0
  5  6  1  0  0  0  0
  5 10  2  0  0  0  0
  6  7  2  0  0  0  0
  6 25  1  0  0  0  0
  7  8  1  0  0  0  0
  7 26  1  0  0  0  0
  8  9  2  0  0  0  0
  8 27  1  0  0  0  0
  9 10  1  0  0  0  0
  9 11  1  0  0  0  0
 10 28  1  0  0  0  0
 11 12  1  0  0  0  0
 11 23  1  0  0  0  0
 12 13  1  0  0  0  0
 12 29  1  0  0  0  0
 12 30  1  0  0  0  0
 13 14  1  0  0  0  0
 13 15  1  0  0  0  0
 13 20  1  0  0  0  0
 15 16  1  0  0  0  0
 16 17  1  0  0  0  0
 16 18  1  0  0  0  0
 16 21  1  0  0  0  0
 18 19  1  0  0  0  0
 18 31  1  0  0  0  0
 18 32  1  0  0  0  0
 19 20  1  0  0  0  0
 19 23  1  0  0  0  0
 19 33  1  0  0  0  0
 20 21  1  0  0  0  0
 20 34  1  0  0  0  0
 21 22  1  0  0  0  0
 21 35  1  0  0  0  0
 23 24  2  0  0  0  0
M  END
$$$$
