
     RDKit          3D

 53 57  0  0  0  0  0  0  0  0999 V2000
   -0.1331    3.3016    3.5852 I   0  0  0  0  0  0  0  0  0  0  0  0
    0.6444    3.0461    1.3331 Cu  0  0  0  0  0  3  0  0  0  0  0  0
   -0.4247    2.2646    0.2372 S   0  0  0  0  0  3  0  0  0  0  0  0
   -1.1938    0.7366    0.4214 P   0  0  0  0  0  0  0  0  0  0  0  0
   -0.0145   -0.3045    1.3207 C   0  0  0  0  0  0  0  0  0  0  0  0
    1.6455    0.1975    0.8801 P   0  0  0  0  0  0  0  0  0  0  0  0
    2.1471    1.5520    1.8630 S   0  0  0  0  0  3  0  0  0  0  0  0
    2.8594   -1.0595    1.2648 C   0  0  0  0  0  0  0  0  0  0  0  0
    4.0398   -0.8784    1.9597 C   0  0  0  0  0  0  0  0  0  0  0  0
    4.8865   -1.9364    2.1866 C   0  0  0  0  0  0  0  0  0  0  0  0
    4.5930   -3.2066    1.7337 C   0  0  0  0  0  0  0  0  0  0  0  0
    3.4212   -3.4343    1.0328 C   0  0  0  0  0  0  0  0  0  0  0  0
    2.5991   -2.3376    0.8284 C   0  0  0  0  0  0  0  0  0  0  0  0
    1.8166    0.6199   -0.8314 C   0  0  0  0  0  0  0  0  0  0  0  0
    1.4604   -0.2487   -1.8194 C   0  0  0  0  0  0  0  0  0  0  0  0
    1.5970    0.0883   -3.1635 C   0  0  0  0  0  0  0  0  0  0  0  0
    2.1017    1.3231   -3.4963 C   0  0  0  0  0  0  0  0  0  0  0  0
    2.4777    2.2402   -2.5315 C   0  0  0  0  0  0  0  0  0  0  0  0
    2.3227    1.8583   -1.2344 C   0  0  0  0  0  0  0  0  0  0  0  0
   -2.7198    0.9212    1.3502 C   0  0  0  0  0  0  0  0  0  0  0  0
   -3.2795    2.1841    1.4266 C   0  0  0  0  0  0  0  0  0  0  0  0
   -4.4521    2.3622    2.1323 C   0  0  0  0  0  0  0  0  0  0  0  0
   -5.0736    1.2799    2.7665 C   0  0  0  0  0  0  0  0  0  0  0  0
   -4.4571    0.0533    2.6461 C   0  0  0  0  0  0  0  0  0  0  0  0
   -3.2887   -0.1920    1.9579 C   0  0  0  0  0  0  0  0  0  0  0  0
   -1.6293   -0.0446   -1.1338 C   0  0  0  0  0  0  0  0  0  0  0  0
   -1.7878   -1.4235   -1.1096 C   0  0  0  0  0  0  0  0  0  0  0  0
   -2.1243   -1.9567   -2.3494 C   0  0  0  0  0  0  0  0  0  0  0  0
   -2.2924   -1.2249   -3.5063 C   0  0  0  0  0  0  0  0  0  0  0  0
   -2.1134    0.1401   -3.4299 C   0  0  0  0  0  0  0  0  0  0  0  0
   -1.7804    0.7460   -2.2455 C   0  0  0  0  0  0  0  0  0  0  0  0
   -0.1313   -0.1273    2.4222 H   0  0  0  0  0  0  0  0  0  0  0  0
   -0.1414   -1.3825    1.0738 H   0  0  0  0  0  0  0  0  0  0  0  0
    4.2180    0.1512    2.2938 H   0  0  0  0  0  0  0  0  0  0  0  0
    5.7709   -1.6225    2.7480 H   0  0  0  0  0  0  0  0  0  0  0  0
    5.3202   -3.9630    1.9633 H   0  0  0  0  0  0  0  0  0  0  0  0
    3.1978   -4.4218    0.6833 H   0  0  0  0  0  0  0  0  0  0  0  0
    1.6936   -2.5546    0.2774 H   0  0  0  0  0  0  0  0  0  0  0  0
    1.0601   -1.2282   -1.6208 H   0  0  0  0  0  0  0  0  0  0  0  0
    1.3385   -0.5418   -4.0095 H   0  0  0  0  0  0  0  0  0  0  0  0
    2.2291    1.6372   -4.5380 H   0  0  0  0  0  0  0  0  0  0  0  0
    2.8774    3.2182   -2.7817 H   0  0  0  0  0  0  0  0  0  0  0  0
    2.6221    2.5885   -0.4774 H   0  0  0  0  0  0  0  0  0  0  0  0
   -2.8218    3.0471    0.9449 H   0  0  0  0  0  0  0  0  0  0  0  0
   -4.9346    3.3341    2.2239 H   0  0  0  0  0  0  0  0  0  0  0  0
   -5.9967    1.3504    3.3375 H   0  0  0  0  0  0  0  0  0  0  0  0
   -4.9262   -0.7884    3.1303 H   0  0  0  0  0  0  0  0  0  0  0  0
   -2.8486   -1.1784    1.8964 H   0  0  0  0  0  0  0  0  0  0  0  0
   -1.6653   -2.0232   -0.2307 H   0  0  0  0  0  0  0  0  0  0  0  0
   -2.2760   -3.0314   -2.4583 H   0  0  0  0  0  0  0  0  0  0  0  0
   -2.5533   -1.6901   -4.4397 H   0  0  0  0  0  0  0  0  0  0  0  0
   -2.2399    0.7441   -4.3294 H   0  0  0  0  0  0  0  0  0  0  0  0
   -1.6401    1.8151   -2.1848 H   0  0  0  0  0  0  0  0  0  0  0  0
  1  2  1  0
  2  3  1  0
  3  4  2  0
  4  5  1  0
  5  6  1  0
  6  7  2  0
  6  8  1  0
  8  9  2  0
  9 10  1  0
 10 11  2  0
 11 12  1  0
 12 13  2  0
  6 14  1  0
 14 15  2  0
 15 16  1  0
 16 17  2  0
 17 18  1  0
 18 19  2  0
  4 20  1  0
 20 21  2  0
 21 22  1  0
 22 23  2  0
 23 24  1  0
 24 25  2  0
  4 26  1  0
 26 27  2  0
 27 28  1  0
 28 29  2  0
 29 30  1  0
 30 31  2  0
  7  2  1  0
 13  8  1  0
 19 14  1  0
 25 20  1  0
 31 26  1  0
  5 32  1  0
  5 33  1  0
  9 34  1  0
 10 35  1  0
 11 36  1  0
 12 37  1  0
 13 38  1  0
 15 39  1  0
 16 40  1  0
 17 41  1  0
 18 42  1  0
 19 43  1  0
 21 44  1  0
 22 45  1  0
 23 46  1  0
 24 47  1  0
 25 48  1  0
 27 49  1  0
 28 50  1  0
 29 51  1  0
 30 52  1  0
 31 53  1  0
M  RAD  2   3   2   7   2
M  END
