
  --CCDC--092525    3D                              

 45 50  0  0  0  0  0  0  0  0999 V2000
    5.9301   -2.9298   -3.2029 H      0
    6.7421   -2.6965   -2.5181 C      0
    7.2880   -3.6138   -2.3075 H      0
    7.4174   -2.0000   -3.0094 H      0
    6.0760   -1.9593   -0.9367 Si     0
    5.1937   -0.3929   -1.2273 C      0
    5.7936    0.6653   -1.9135 C      0
    6.8547    2.0529   -3.0240 Cr     0
    5.5540    3.0039   -1.7238 C      0
    4.8381    3.5272   -1.0083 O      0
    4.8320    1.9608   -3.4560 C      0
    3.7319    1.9099   -3.7624 O      0
    7.5434    3.5223   -3.9731 C      0
    6.4494    3.6707   -3.6038 H      0
    7.2907    2.3080   -4.9023 C      0
    6.2424    1.8774   -5.2538 H      0
    7.6788    0.9543   -4.3633 C      0
    6.9712    0.0324   -4.0973 H      0
    8.3606    0.8584   -3.0114 C      0
    7.9504    0.3161   -2.0371 H      0
    8.6606    2.0857   -2.1739 C      0
    8.2194    2.3730   -1.0990 H      0
    8.2280    3.3416   -2.6609 C      0
    7.2928    3.3696   -1.9684 H      0
    3.4702   -0.2490   -0.6956 Si     0
    2.3253   -0.2705   -2.1676 C      0
    2.0654    0.7416   -2.4649 H      0
    1.4126   -0.8141   -1.9420 H      0
    2.8147   -0.7566   -3.0081 H      0
    3.1550    1.3355    0.2465 C      0
    2.6920    2.0791   -0.3962 H      0
    4.0844    1.7533    0.6249 H      0
    2.4961    1.1640    1.0921 H      0
    2.8522   -1.6428    0.3876 C      0
    2.7173   -2.5500   -0.1959 H      0
    1.8990   -1.3898    0.8425 H      0
    3.5516   -1.8673    1.1855 H      0
    5.1091   -3.3518   -0.1382 C      0
    4.1844   -3.5563   -0.6718 H      0
    4.8676   -3.1239    0.8976 H      0
    5.6965   -4.2678   -0.1460 H      0
    7.5763   -1.7755    0.1665 C      0
    8.0895   -2.7291    0.2683 H      0
    7.2944   -1.4411    1.1619 H      0
    8.2799   -1.0585   -0.2479 H      0
  1  2  1
  2  3  1
  2  4  1
  2  5  1
  5  6  1
  6  7  4
  7  8  4
  8  9  1
  9 10  3
  8 11  1
 11 12  3
  8 13  1
 13 14  1
 13 15  4
  8 15  1
 15 16  1
 15 17  4
  8 17  1
 17 18  1
 17 19  4
  8 19  1
 19 20  1
 19 21  4
  8 21  1
 21 22  1
 21 23  4
 13 23  4
  8 23  1
 23 24  1
  6 25  1
 25 26  1
 26 27  1
 26 28  1
 26 29  1
 25 30  1
 30 31  1
 30 32  1
 30 33  1
 25 34  1
 34 35  1
 34 36  1
 34 37  1
  5 38  1
 38 39  1
 38 40  1
 38 41  1
  5 42  1
 42 43  1
 42 44  1
 42 45  1
M  END
$$$$
