
 OpenBabel09252519393D

 29 30  0  0  0  0  0  0  0  0999 V2000
    1.0479   -0.0056   -0.0876 Cl  0  0  0  0  0  0  0  0  0  0  0  0
    3.4279   -0.0056   -0.0876 Au  0  0  0  0  0  0  0  0  0  0  0  0
    5.3253   -0.0056   -0.0876 C   0  0  0  0  0  0  0  0  0  0  0  0
    6.0603   -0.5427   -1.2418 N   0  0  0  0  0  0  0  0  0  0  0  0
    5.7225   -0.2414   -2.6452 C   0  0  0  0  0  0  0  0  0  0  0  0
    6.0818   -1.5284   -3.3347 C   0  0  0  0  0  0  0  0  0  0  0  0
    7.4484   -1.9034   -2.6860 C   0  0  0  0  0  0  0  0  0  0  0  0
    7.3047   -1.4013   -1.2469 C   0  0  0  0  0  0  0  0  0  0  0  0
    6.0603    0.5314    1.0666 N   0  0  0  0  0  0  0  0  0  0  0  0
    5.7821    0.2757    2.4920 C   0  0  0  0  0  0  0  0  0  0  0  0
    5.9804    1.6380    3.0967 C   0  0  0  0  0  0  0  0  0  0  0  0
    7.2786    2.1451    2.3992 C   0  0  0  0  0  0  0  0  0  0  0  0
    7.1830    1.5415    0.9955 C   0  0  0  0  0  0  0  0  0  0  0  0
    6.2298    0.6151   -3.0374 H   0  0  0  0  0  0  0  0  0  0  0  0
    4.6819   -0.0183   -2.7556 H   0  0  0  0  0  0  0  0  0  0  0  0
    5.3382   -2.2894   -3.2217 H   0  0  0  0  0  0  0  0  0  0  0  0
    6.1838   -1.3840   -4.3900 H   0  0  0  0  0  0  0  0  0  0  0  0
    7.6668   -2.9492   -2.7447 H   0  0  0  0  0  0  0  0  0  0  0  0
    8.2572   -1.4114   -3.1846 H   0  0  0  0  0  0  0  0  0  0  0  0
    7.2326   -2.2095   -0.5494 H   0  0  0  0  0  0  0  0  0  0  0  0
    8.1596   -0.8226   -0.9655 H   0  0  0  0  0  0  0  0  0  0  0  0
    6.4010   -0.4829    2.9236 H   0  0  0  0  0  0  0  0  0  0  0  0
    4.7806   -0.0721    2.6366 H   0  0  0  0  0  0  0  0  0  0  0  0
    5.1432    2.2888    2.9541 H   0  0  0  0  0  0  0  0  0  0  0  0
    6.1135    1.5728    4.1564 H   0  0  0  0  0  0  0  0  0  0  0  0
    7.3604    3.2119    2.3915 H   0  0  0  0  0  0  0  0  0  0  0  0
    8.1506    1.7926    2.9094 H   0  0  0  0  0  0  0  0  0  0  0  0
    6.9980    2.2896    0.2531 H   0  0  0  0  0  0  0  0  0  0  0  0
    8.1020    1.0613    0.7314 H   0  0  0  0  0  0  0  0  0  0  0  0
  1  2  1  0  0  0  0
  2  3  2  0  0  0  0
  3  4  1  0  0  0  0
  3  9  1  0  0  0  0
  4  5  1  0  0  0  0
  4  8  1  0  0  0  0
  5  6  1  0  0  0  0
  5 14  1  0  0  0  0
  5 15  1  0  0  0  0
  6  7  1  0  0  0  0
  6 16  1  0  0  0  0
  6 17  1  0  0  0  0
  7  8  1  0  0  0  0
  7 18  1  0  0  0  0
  7 19  1  0  0  0  0
  8 20  1  0  0  0  0
  8 21  1  0  0  0  0
  9 10  1  0  0  0  0
  9 13  1  0  0  0  0
 10 11  1  0  0  0  0
 10 22  1  0  0  0  0
 10 23  1  0  0  0  0
 11 12  1  0  0  0  0
 11 24  1  0  0  0  0
 11 25  1  0  0  0  0
 12 13  1  0  0  0  0
 12 26  1  0  0  0  0
 12 27  1  0  0  0  0
 13 28  1  0  0  0  0
 13 29  1  0  0  0  0
M  END
$$$$
