
  --CCDC--092525    3D                              

 68 74  0  0  0  0  0  0  0  0999 V2000
    2.0621   -1.6708    1.3971 C      0
    1.3302   -0.5982    0.1880 S      0
    2.1556   -1.2560   -1.2379 C      0
    1.9544    0.6817    0.3956 O      0
    0.4642    2.7466    1.1330 U      3
   -0.8683    5.0311    1.0573 O      0
   -2.2430    4.9437    1.3074 C      0
   -2.9975    5.9007    1.2906 O      0
   -2.7393    3.5632    1.6741 C      0
   -2.0500    2.5942    0.8942 N      0
   -2.0908    1.3052    1.6139 C      0
   -1.2382    1.1404    2.9374 C      0
    0.1841    0.8137    2.7710 N      0
    1.4757    1.1716    3.3949 C      0
    2.7727    1.4757    2.5160 C      0
    2.9248    2.7121    1.7063 N      0
    3.1539    2.9215    0.2357 C      0
    2.1769    3.6653   -0.8134 C      0
    0.8774    3.1402   -1.3165 N      0
   -0.5503    3.6008   -1.2656 C      0
   -1.8387    2.9021   -0.5624 C      0
    1.1141    1.9754   -2.0954 C      0
   -0.0162    0.9968   -1.8673 C      0
   -0.4028    0.2643   -2.7615 O      0
   -0.5097    0.9472   -0.5463 O      0
    3.3160    3.7649    2.5756 C      0
    2.9113    5.0874    1.9665 C      0
    3.6145    6.0756    2.0865 O      0
    1.6495    5.1004    1.3603 O      0
    0.0680    3.5966    3.6047 O      0
    0.0671    5.0311    3.6356 S      0
   -1.4390    5.4462    4.4752 C      0
    1.2086    5.4459    4.9281 C      0
    1.7779   -1.3688    2.4030 H      0
    3.1477   -1.6444    1.3294 H      0
    1.7380   -2.6986    1.2475 H      0
    1.4671   -1.8382   -1.8467 H      0
    2.9767   -1.9053   -0.9414 H      0
    2.5623   -0.4584   -1.8557 H      0
   -2.5748    3.3753    2.7423 H      0
   -3.8202    3.4896    1.5016 H      0
   -3.1374    1.1940    1.9230 H      0
   -1.9421    0.4345    0.9701 H      0
   -1.4143    1.9924    3.5970 H      0
   -1.6747    0.2984    3.4886 H      0
    0.2502   -0.1112    2.3159 H      0
    1.3610    1.9633    4.1373 H      0
    1.7398    0.3071    4.0165 H      0
    3.5542    1.5984    3.2760 H      0
    3.1438    0.5759    2.0161 H      0
    4.0552    3.5466    0.2198 H      0
    3.5332    2.0051   -0.2292 H      0
    2.0702    4.7305   -0.6044 H      0
    2.7891    3.7027   -1.7229 H      0
   -0.5257    4.6654   -1.0234 H      0
   -0.8385    3.6344   -2.3235 H      0
   -2.1994    2.0604   -1.1658 H      0
   -2.6404    3.6164   -0.7863 H      0
    1.1742    2.2405   -3.1582 H      0
    2.0772    1.5226   -1.8311 H      0
    2.8426    3.6396    3.5570 H      0
    4.4003    3.7377    2.7400 H      0
   -2.2701    4.8581    4.0919 H      0
   -1.6780    6.4990    4.3404 H      0
   -1.3512    5.2527    5.5422 H      0
    2.1669    5.7523    4.5145 H      0
    1.3784    4.5924    5.5811 H      0
    0.8243    6.2642    5.5334 H      0
  1  2  1
  2  3  1
  2  4  2
  4  5  1
  5  6  1
  6  7  1
  7  8  2
  7  9  1
  9 10  1
  5 10  1
 10 11  1
 11 12  1
 12 13  1
  5 13  1
 13 14  1
 14 15  1
 15 16  1
  5 16  1
 16 17  1
 17 18  1
 18 19  1
  5 19  1
 19 20  1
 20 21  1
 10 21  1
 19 22  1
 22 23  1
 23 24  2
 23 25  1
  5 25  1
 16 26  1
 26 27  1
 27 28  2
 27 29  1
  5 29  1
  5 30  1
 30 31  2
 31 32  1
 31 33  1
  1 34  1
  1 35  1
  1 36  1
  3 37  1
  3 38  1
  3 39  1
  9 40  1
  9 41  1
 11 42  1
 11 43  1
 12 44  1
 12 45  1
 13 46  1
 14 47  1
 14 48  1
 15 49  1
 15 50  1
 17 51  1
 17 52  1
 18 53  1
 18 54  1
 20 55  1
 20 56  1
 21 57  1
 21 58  1
 22 59  1
 22 60  1
 26 61  1
 26 62  1
 32 63  1
 32 64  1
 32 65  1
 33 66  1
 33 67  1
 33 68  1
M  CHG  1   5   1
M  END
$$$$
