
  --CCDC--092525    3D                              

 57 64  0  0  0  0  0  0  0  0999 V2000
    0.4387   -0.4514    0.2576 C      0
    1.7538   -0.3131   -0.3524 C      0
    2.7817   -0.1773   -0.8285 N      0
    4.7637    0.0846   -1.7465 Fe     1
    5.2472   -1.0331    0.0864 N      0
    5.5066   -1.6127    1.0348 C      0
    5.8613   -2.3220    2.2566 C      0
    4.7881   -1.5389   -3.2756 C      0
    4.3126   -1.2427   -4.5778 N      0
    2.9701   -0.7318   -4.6947 C      0
    3.1844    0.6787   -4.4782 N      0
    3.2146    1.6998   -5.4333 C      0
    3.3718    2.8409   -4.7577 C      0
    3.4339    2.4914   -3.4047 N      0
    3.5449    3.3693   -2.2645 C      0
    4.9447    3.2303   -1.9540 N      0
    5.9796    4.0590   -2.3938 C      0
    7.0962    3.5699   -1.8582 C      0
    6.7116    2.4548   -1.1090 N      0
    7.5717    1.6670   -0.2578 C      0
    7.6827    0.3050   -0.7414 N      0
    8.4893   -0.6376   -0.1028 C      0
    8.3203   -1.7772   -0.7567 C      0
    7.4128   -1.5100   -1.7824 N      0
    6.9445   -2.5471   -2.6802 C      0
    6.0658   -2.0000   -3.6867 N      0
    6.3126   -1.9653   -5.0616 C      0
    5.2053   -1.4859   -5.6248 C      0
    6.9686   -0.1497   -1.9012 C      0
    5.3258    2.1501   -1.1202 C      0
    3.3365    1.1050   -3.1373 C      0
   -0.2010    0.3882   -0.0074 H      0
    0.5200   -0.4866    1.3413 H      0
   -0.0471   -1.3660   -0.0763 H      0
    4.9695   -2.6441    2.7908 H      0
    6.4573   -3.2036    2.0317 H      0
    6.4404   -1.6820    2.9190 H      0
    2.5533   -0.9236   -5.6910 H      0
    2.3142   -1.1559   -3.9244 H      0
    3.1125    1.5888   -6.5079 H      0
    3.4238    3.8412   -5.1749 H      0
    3.2946    4.4043   -2.5276 H      0
    2.9158    3.0272   -1.4334 H      0
    5.8895    4.9310   -3.0329 H      0
    8.0989    3.9705   -1.9629 H      0
    8.5669    2.1265   -0.2141 H      0
    7.1605    1.6560    0.7592 H      0
    9.1133   -0.4748    0.7695 H      0
    8.7790   -2.7329   -0.5261 H      0
    7.8015   -3.0311   -3.1645 H      0
    6.4059   -3.3098   -2.1042 H      0
    7.2162   -2.2860   -5.5696 H      0
    5.0284   -1.3270   -6.6834 H      0
    4.2176   -2.3937   -2.8802 H      0
    7.3612    0.3179   -2.8172 H      0
    4.9208    2.3254   -0.1115 H      0
    2.3496    0.9636   -2.6704 H      0
  1  2  1
  2  3  3
  3  4  1
  4  5  1
  5  6  3
  6  7  1
  4  8  1
  8  9  1
  9 10  1
 10 11  1
 11 12  1
 12 13  2
 13 14  1
 14 15  1
 15 16  1
 16 17  1
 17 18  2
 18 19  1
 19 20  1
 20 21  1
 21 22  1
 22 23  2
 23 24  1
 24 25  1
 25 26  1
  8 26  1
 26 27  1
 27 28  2
  9 28  1
 24 29  1
  4 29  1
 21 29  1
 19 30  1
  4 30  1
 16 30  1
 14 31  1
  4 31  1
 11 31  1
  1 32  1
  1 33  1
  1 34  1
  7 35  1
  7 36  1
  7 37  1
 10 38  1
 10 39  1
 12 40  1
 13 41  1
 15 42  1
 15 43  1
 17 44  1
 18 45  1
 20 46  1
 20 47  1
 22 48  1
 23 49  1
 25 50  1
 25 51  1
 27 52  1
 28 53  1
  8 54  1
 29 55  1
 30 56  1
 31 57  1
M  CHG  1   4   3
M  END
$$$$
