
 OpenBabel09252515473D

 35 38  0  0  1  0  0  0  0  0999 V2000
    2.8044    0.2208    0.9665 H   0  0  0  0  0  0  0  0  0  0  0  0
    2.7778   -0.0159   -0.0916 C   0  0  0  0  0  3  0  0  0  0  0  0
    2.1995   -1.2818   -0.5267 C   0  0  0  0  0  3  0  0  0  0  0  0
    2.0793   -2.0593    0.2154 H   0  0  0  0  0  0  0  0  0  0  0  0
    1.5945   -1.3758   -1.8684 C   0  0  0  0  0  3  0  0  0  0  0  0
    0.2285   -1.6853   -1.9215 N   0  0  0  0  0  0  0  0  0  0  0  0
   -0.6697   -0.5990   -2.2325 C   0  0  0  0  0  0  0  0  0  0  0  0
   -0.5772    0.2373   -3.1157 O   0  0  0  0  0  0  0  0  0  0  0  0
   -1.6601   -0.5004   -1.1126 C   0  0  2  0  0  0  0  0  0  0  0  0
   -0.7643   -0.6592   -0.4761 H   0  0  0  0  0  0  0  0  0  0  0  0
   -2.0525    0.3345    0.0880 C   0  0  0  0  0  0  0  0  0  0  0  0
   -2.7846    1.1117   -0.1573 H   0  0  0  0  0  0  0  0  0  0  0  0
   -1.2069    0.8279    0.5905 H   0  0  0  0  0  0  0  0  0  0  0  0
   -2.6416   -0.8601    0.9124 C   0  0  2  0  0  0  0  0  0  0  0  0
   -3.2366   -0.2681    2.6224 Br  0  0  0  0  0  0  0  0  0  0  0  0
   -1.6260   -1.9593    0.9944 O   0  0  0  0  0  0  0  0  0  0  0  0
   -1.6578   -2.6823   -0.2912 C   0  0  2  0  0  0  0  0  0  0  0  0
   -2.2329   -4.3395    0.0145 Cl  0  0  0  0  0  0  0  0  0  0  0  0
   -0.2914   -2.8417   -1.0916 C   0  0  0  0  0  0  0  0  0  0  0  0
   -0.4427   -3.6152   -1.8588 H   0  0  0  0  0  0  0  0  0  0  0  0
    0.4818   -3.2224   -0.4203 H   0  0  0  0  0  0  0  0  0  0  0  0
   -2.5835   -1.7672   -1.0650 C   0  0  1  0  0  0  0  0  0  0  0  0
   -2.9154   -2.1323   -2.0400 H   0  0  0  0  0  0  0  0  0  0  0  0
   -3.6779   -1.3193   -0.0990 C   0  0  1  0  0  0  0  0  0  0  0  0
   -4.2214   -0.4630   -0.5227 H   0  0  0  0  0  0  0  0  0  0  0  0
   -5.1844   -2.6415    0.4619 I   0  0  0  0  0  0  0  0  0  0  0  0
    2.1472   -0.4781   -2.8872 C   0  0  0  0  0  3  0  0  0  0  0  0
    1.9179   -0.6653   -3.9311 H   0  0  0  0  0  0  0  0  0  0  0  0
    2.7727    0.7843   -2.4880 C   0  0  0  0  0  3  0  0  0  0  0  0
    3.0071    1.8715   -3.4849 C   0  0  0  0  0  0  0  0  0  0  0  0
    4.3293    2.1689   -3.5888 F   0  0  0  0  0  0  0  0  0  0  0  0
    2.5835    1.5553   -4.7354 F   0  0  0  0  0  0  0  0  0  0  0  0
    2.3790    3.0245   -3.1348 F   0  0  0  0  0  0  0  0  0  0  0  0
    3.0504    1.0255   -1.0697 C   0  0  0  0  0  3  0  0  0  0  0  0
    3.2456    2.0367   -0.7262 H   0  0  0  0  0  0  0  0  0  0  0  0
  1  2  1  0  0  0  0
  2  3  1  0  0  0  0
  2 34  1  0  0  0  0
  3  4  1  0  0  0  0
  3  5  1  0  0  0  0
  5 27  1  0  0  0  0
  5  6  1  0  0  0  0
  6  7  1  0  0  0  0
  6 19  1  0  0  0  0
  7  9  1  0  0  0  0
  7  8  2  0  0  0  0
  9 11  1  0  0  0  0
  9 22  1  0  0  0  0
  9 10  1  6  0  0  0
 11 14  1  0  0  0  0
 11 12  1  0  0  0  0
 11 13  1  0  0  0  0
 14 16  1  0  0  0  0
 14 24  1  0  0  0  0
 14 15  1  1  0  0  0
 16 17  1  0  0  0  0
 17 19  1  0  0  0  0
 17 22  1  0  0  0  0
 17 18  1  1  0  0  0
 19 20  1  0  0  0  0
 19 21  1  0  0  0  0
 22 24  1  0  0  0  0
 22 23  1  6  0  0  0
 24 26  1  0  0  0  0
 24 25  1  6  0  0  0
 27 28  1  0  0  0  0
 27 29  1  0  0  0  0
 29 30  1  0  0  0  0
 29 34  1  0  0  0  0
 30 31  1  0  0  0  0
 30 32  1  0  0  0  0
 30 33  1  0  0  0  0
 34 35  1  0  0  0  0
M  END
$$$$
