
 OpenBabel09252515403D

114121  0  0  0  0  0  0  0  0999 V2000
    1.0892   -0.0134   -0.0432 H   0  0  0  0  0  0  0  0  0  0  0  0
    2.1592   -0.0134   -0.0432 C   0  0  0  0  0  3  0  0  0  0  0  0
    2.6714   -1.3963   -0.4524 C   0  0  0  0  0  3  0  0  0  0  0  0
    2.2823   -2.1337    0.2183 H   0  0  0  0  0  0  0  0  0  0  0  0
    2.2412   -1.6884   -1.7836 C   0  0  0  0  0  3  0  0  0  0  0  0
    2.7246   -3.0831   -2.1463 C   0  0  0  0  0  0  0  0  0  0  0  0
    3.7926   -3.1162   -2.0904 H   0  0  0  0  0  0  0  0  0  0  0  0
    2.1349   -4.0924   -1.1748 C   0  0  0  0  0  0  0  0  0  0  0  0
    1.0669   -4.0594   -1.2307 H   0  0  0  0  0  0  0  0  0  0  0  0
    2.4752   -5.0742   -1.4301 H   0  0  0  0  0  0  0  0  0  0  0  0
    2.4475   -3.8542   -0.1796 H   0  0  0  0  0  0  0  0  0  0  0  0
    2.2805   -3.4215   -3.5601 C   0  0  0  0  0  0  0  0  0  0  0  0
    1.2125   -3.3885   -3.6160 H   0  0  0  0  0  0  0  0  0  0  0  0
    2.6956   -2.7110   -4.2440 H   0  0  0  0  0  0  0  0  0  0  0  0
    2.6208   -4.4033   -3.8154 H   0  0  0  0  0  0  0  0  0  0  0  0
    2.7286   -0.7744   -2.7676 C   0  0  0  0  0  3  0  0  0  0  0  0
    4.1986   -0.7778   -2.7543 N   0  0  0  0  0  0  0  0  0  0  0  0
    5.1469   -1.1321   -3.8830 C   0  0  0  0  0  0  0  0  0  0  0  0
    6.3340   -0.7444   -3.6270 C   0  0  0  0  0  0  0  0  0  0  0  0
    7.5115   -0.9571   -4.5645 C   0  0  0  0  0  3  0  0  0  0  0  0
    8.1035    0.3972   -4.9618 C   0  0  0  0  0  3  0  0  0  0  0  0
    7.3423    1.0021   -5.4085 H   0  0  0  0  0  0  0  0  0  0  0  0
    8.6125    1.0536   -3.7989 C   0  0  0  0  0  3  0  0  0  0  0  0
    8.9924    2.0100   -4.0920 H   0  0  0  0  0  0  0  0  0  0  0  0
    9.6578    0.3393   -3.1367 C   0  0  0  0  0  3  0  0  0  0  0  0
   10.4720    0.1888   -3.8144 H   0  0  0  0  0  0  0  0  0  0  0  0
    9.1286   -1.0173   -2.6655 C   0  0  0  0  0  3  0  0  0  0  0  0
   10.2543   -1.8039   -2.0138 C   0  0  0  0  0  3  0  0  0  0  0  0
   10.6315   -1.2580   -1.1745 H   0  0  0  0  0  0  0  0  0  0  0  0
    9.7268   -3.1507   -1.5466 C   0  0  0  0  0  3  0  0  0  0  0  0
    9.3495   -3.6967   -2.3860 H   0  0  0  0  0  0  0  0  0  0  0  0
   10.8524   -3.9373   -0.8949 C   0  0  0  0  0  3  0  0  0  0  0  0
   10.4811   -4.8854   -0.5661 H   0  0  0  0  0  0  0  0  0  0  0  0
    9.7260   -2.0686   -4.8463 C   0  0  0  0  0  3  0  0  0  0  0  0
    8.5921   -1.7940   -3.8720 C   0  0  0  0  0  3  0  0  0  0  0  0
    6.4391   -0.0688   -2.3247 N   0  0  0  0  0  0  0  0  0  0  0  0
    7.5460    0.7632   -1.8313 C   0  0  0  0  0  3  0  0  0  0  0  0
    6.6649    1.9515   -1.4390 C   0  0  0  0  0  3  0  0  0  0  0  0
    6.0797    2.5837   -2.6913 C   0  0  0  0  0  0  0  0  0  0  0  0
    5.4904    1.8597   -3.2143 H   0  0  0  0  0  0  0  0  0  0  0  0
    5.2042    3.7635   -2.3016 C   0  0  0  0  0  0  0  0  0  0  0  0
    5.7935    4.4875   -1.7785 H   0  0  0  0  0  0  0  0  0  0  0  0
    4.7923    4.2085   -3.1831 H   0  0  0  0  0  0  0  0  0  0  0  0
    4.4106    3.4251   -1.6687 H   0  0  0  0  0  0  0  0  0  0  0  0
    7.2070    3.0645   -3.5904 C   0  0  0  0  0  0  0  0  0  0  0  0
    7.7963    3.7884   -3.0674 H   0  0  0  0  0  0  0  0  0  0  0  0
    7.8233    2.2339   -3.8648 H   0  0  0  0  0  0  0  0  0  0  0  0
    6.7951    3.5095   -4.4719 H   0  0  0  0  0  0  0  0  0  0  0  0
    5.6050    1.4994   -0.5935 C   0  0  0  0  0  3  0  0  0  0  0  0
    4.9833    2.3374   -0.3567 H   0  0  0  0  0  0  0  0  0  0  0  0
    6.0469    0.9084    0.6299 C   0  0  0  0  0  3  0  0  0  0  0  0
    6.6283    1.6188    1.1797 H   0  0  0  0  0  0  0  0  0  0  0  0
    6.9031   -0.3221    0.3214 C   0  0  0  0  0  3  0  0  0  0  0  0
    7.2697   -0.7415    1.2349 H   0  0  0  0  0  0  0  0  0  0  0  0
    8.0835    0.0955   -0.5612 C   0  0  0  0  0  3  0  0  0  0  0  0
    8.9640    1.0761    0.1963 C   0  0  0  0  0  0  0  0  0  0  0  0
    8.3914    1.9414    0.4573 H   0  0  0  0  0  0  0  0  0  0  0  0
    9.4876    0.4146    1.4606 C   0  0  0  0  0  0  0  0  0  0  0  0
   10.0602   -0.4508    1.1996 H   0  0  0  0  0  0  0  0  0  0  0  0
   10.1074    1.1048    1.9938 H   0  0  0  0  0  0  0  0  0  0  0  0
    8.6638    0.1241    2.0786 H   0  0  0  0  0  0  0  0  0  0  0  0
   10.1342    1.4887   -0.6816 C   0  0  0  0  0  0  0  0  0  0  0  0
   10.7068    0.6234   -0.9427 H   0  0  0  0  0  0  0  0  0  0  0  0
    9.7656    1.9544   -1.5716 H   0  0  0  0  0  0  0  0  0  0  0  0
   10.7540    2.1790   -0.1484 H   0  0  0  0  0  0  0  0  0  0  0  0
    5.1386   -0.4246   -1.5964 Eu  0  0  0  0  0  0  0  0  0  0  0  0
    6.5172   -1.6896   -3.5291 N   0  0  0  0  0  0  0  0  0  0  0  0
    6.3664   -2.9848   -3.7045 C   0  0  0  0  0  0  0  0  0  0  0  0
    6.1807   -4.5795   -3.9206 S   0  0  0  0  0  0  0  0  0  0  0  0
    4.6073    0.7548   -0.7713 O   0  0  0  0  0  0  0  0  0  0  0  0
    4.9364    1.9965   -1.3765 C   0  0  0  0  0  0  0  0  0  0  0  0
    6.0000    2.0855   -1.4523 H   0  0  0  0  0  0  0  0  0  0  0  0
    4.5040    2.0425   -2.3542 H   0  0  0  0  0  0  0  0  0  0  0  0
    4.5532    2.7972   -0.7791 H   0  0  0  0  0  0  0  0  0  0  0  0
    5.3522    0.5713    0.5790 C   0  0  0  0  0  0  0  0  0  0  0  0
    4.8518    1.0503    1.3945 H   0  0  0  0  0  0  0  0  0  0  0  0
    6.3294    1.0052    0.5366 H   0  0  0  0  0  0  0  0  0  0  0  0
    5.4385   -0.9600    0.7508 C   0  0  0  0  0  0  0  0  0  0  0  0
    6.3621   -1.2423    1.2114 H   0  0  0  0  0  0  0  0  0  0  0  0
    4.6421   -1.3055    1.3763 H   0  0  0  0  0  0  0  0  0  0  0  0
    5.3147   -1.5668   -0.6351 O   0  0  0  0  0  0  0  0  0  0  0  0
    4.1891   -2.4307   -0.6914 C   0  0  0  0  0  0  0  0  0  0  0  0
    3.3069   -1.8847   -0.4298 H   0  0  0  0  0  0  0  0  0  0  0  0
    4.0870   -2.8193   -1.6832 H   0  0  0  0  0  0  0  0  0  0  0  0
    4.3252   -3.2392   -0.0039 H   0  0  0  0  0  0  0  0  0  0  0  0
    6.6399    1.3478   -2.8510 O   0  0  0  0  0  0  0  0  0  0  0  0
    5.8271    2.4202   -3.3045 C   0  0  0  0  0  0  0  0  0  0  0  0
    5.3505    2.8855   -2.4671 H   0  0  0  0  0  0  0  0  0  0  0  0
    6.4356    3.1386   -3.8130 H   0  0  0  0  0  0  0  0  0  0  0  0
    5.0828    2.0447   -3.9752 H   0  0  0  0  0  0  0  0  0  0  0  0
    7.6277    1.8462   -1.9609 C   0  0  0  0  0  0  0  0  0  0  0  0
    7.1512    2.3114   -1.1235 H   0  0  0  0  0  0  0  0  0  0  0  0
    8.2402    1.0381   -1.6192 H   0  0  0  0  0  0  0  0  0  0  0  0
    8.4921    2.8667   -2.6833 C   0  0  0  0  0  0  0  0  0  0  0  0
    7.8796    3.6748   -3.0250 H   0  0  0  0  0  0  0  0  0  0  0  0
    9.2365    3.2422   -2.0126 H   0  0  0  0  0  0  0  0  0  0  0  0
    6.8787   -0.9631    0.3146 O   0  0  0  0  0  0  0  0  0  0  0  0
    6.4254   -0.4041    1.5388 C   0  0  0  0  0  0  0  0  0  0  0  0
    6.3291    0.6563    1.4326 H   0  0  0  0  0  0  0  0  0  0  0  0
    5.4750   -0.8249    1.7928 H   0  0  0  0  0  0  0  0  0  0  0  0
    7.1307   -0.6223    2.3133 H   0  0  0  0  0  0  0  0  0  0  0  0
    2.2187    0.6337   -2.4521 C   0  0  0  0  0  3  0  0  0  0  0  0
    2.7845    1.6179   -3.4628 C   0  0  0  0  0  0  0  0  0  0  0  0
    3.8532    1.6067   -3.4119 H   0  0  0  0  0  0  0  0  0  0  0  0
    2.3397    1.2205   -4.8609 C   0  0  0  0  0  0  0  0  0  0  0  0
    1.2709    1.2318   -4.9118 H   0  0  0  0  0  0  0  0  0  0  0  0
    2.7380    1.9134   -5.5724 H   0  0  0  0  0  0  0  0  0  0  0  0
    2.6970    0.2366   -5.0826 H   0  0  0  0  0  0  0  0  0  0  0  0
    2.2769    3.0156   -3.1478 C   0  0  0  0  0  0  0  0  0  0  0  0
    1.2082    3.0269   -3.1987 H   0  0  0  0  0  0  0  0  0  0  0  0
    2.5901    3.2954   -2.1636 H   0  0  0  0  0  0  0  0  0  0  0  0
    2.6752    3.7085   -3.8593 H   0  0  0  0  0  0  0  0  0  0  0  0
    2.6720    1.0283   -1.0431 C   0  0  0  0  0  3  0  0  0  0  0  0
    3.7408    1.0641   -1.0071 H   0  0  0  0  0  0  0  0  0  0  0  0
  1  2  1  0  0  0  0
  2  3  1  0  0  0  0
  2113  1  0  0  0  0
  3  4  1  0  0  0  0
  3  5  1  0  0  0  0
  5  6  1  0  0  0  0
  5 16  1  0  0  0  0
  6  7  1  0  0  0  0
  6  8  1  0  0  0  0
  6 12  1  0  0  0  0
  8  9  1  0  0  0  0
  8 10  1  0  0  0  0
  8 11  1  0  0  0  0
 12 13  1  0  0  0  0
 12 14  1  0  0  0  0
 12 15  1  0  0  0  0
 16 17  1  0  0  0  0
 16102  1  0  0  0  0
 17 18  1  0  0  0  0
 17 66  1  0  0  0  0
 18 19  2  0  0  0  0
 18 34  1  0  0  0  0
 19 20  1  0  0  0  0
 19 36  1  0  0  0  0
 20 21  1  0  0  0  0
 20 35  1  0  0  0  0
 21 22  1  0  0  0  0
 21 23  1  0  0  0  0
 23 24  1  0  0  0  0
 23 25  1  0  0  0  0
 25 26  1  0  0  0  0
 25 27  1  0  0  0  0
 27 28  1  0  0  0  0
 27 35  1  0  0  0  0
 28 29  1  0  0  0  0
 28 30  1  0  0  0  0
 30 31  1  0  0  0  0
 30 32  1  0  0  0  0
 32 33  1  0  0  0  0
 32 34  1  0  0  0  0
 34 35  1  0  0  0  0
 36 37  1  0  0  0  0
 36 66  1  0  0  0  0
 37 38  1  0  0  0  0
 37 55  1  0  0  0  0
 38 39  1  0  0  0  0
 38 49  1  0  0  0  0
 39 40  1  0  0  0  0
 39 41  1  0  0  0  0
 39 45  1  0  0  0  0
 41 42  1  0  0  0  0
 41 43  1  0  0  0  0
 41 44  1  0  0  0  0
 45 46  1  0  0  0  0
 45 47  1  0  0  0  0
 45 48  1  0  0  0  0
 49 50  1  0  0  0  0
 49 51  1  0  0  0  0
 51 52  1  0  0  0  0
 51 53  1  0  0  0  0
 53 54  1  0  0  0  0
 53 55  1  0  0  0  0
 55 56  1  0  0  0  0
 56 57  1  0  0  0  0
 56 58  1  0  0  0  0
 56 62  1  0  0  0  0
 58 59  1  0  0  0  0
 58 60  1  0  0  0  0
 58 61  1  0  0  0  0
 62 63  1  0  0  0  0
 62 64  1  0  0  0  0
 62 65  1  0  0  0  0
 66 67  1  0  0  0  0
 66 70  1  0  0  0  0
 66 81  1  0  0  0  0
 66 86  1  0  0  0  0
 66 97  1  0  0  0  0
 67 68  2  0  0  0  0
 68 69  2  0  0  0  0
 70 71  1  0  0  0  0
 70 75  1  0  0  0  0
 71 72  1  0  0  0  0
 71 73  1  0  0  0  0
 71 74  1  0  0  0  0
 75 76  1  0  0  0  0
 75 77  1  0  0  0  0
 75 78  1  0  0  0  0
 78 79  1  0  0  0  0
 78 80  1  0  0  0  0
 78 81  1  0  0  0  0
 81 82  1  0  0  0  0
 82 83  1  0  0  0  0
 82 84  1  0  0  0  0
 82 85  1  0  0  0  0
 86 87  1  0  0  0  0
 86 91  1  0  0  0  0
 87 88  1  0  0  0  0
 87 89  1  0  0  0  0
 87 90  1  0  0  0  0
 91 92  1  0  0  0  0
 91 93  1  0  0  0  0
 91 94  1  0  0  0  0
 94 95  1  0  0  0  0
 94 96  1  0  0  0  0
 94 97  1  0  0  0  0
 97 98  1  0  0  0  0
 98 99  1  0  0  0  0
 98100  1  0  0  0  0
 98101  1  0  0  0  0
102103  1  0  0  0  0
102113  1  0  0  0  0
103104  1  0  0  0  0
103105  1  0  0  0  0
103109  1  0  0  0  0
105106  1  0  0  0  0
105107  1  0  0  0  0
105108  1  0  0  0  0
109110  1  0  0  0  0
109111  1  0  0  0  0
109112  1  0  0  0  0
113114  1  0  0  0  0
M  END
$$$$
