
 OpenBabel09252513423D

 32 34  0  0  0  0  0  0  0  0999 V2000
    1.0639    0.0519   -0.0568 C   0  0  0  0  0  0  0  0  0  0  0  0
    0.5572   -0.9625    0.9555 C   0  0  0  0  0  0  0  0  0  0  0  0
    1.0639   -0.5931    2.3401 C   0  0  0  0  0  0  0  0  0  0  0  0
    0.1798   -0.3266    3.3392 C   0  0  0  0  0  0  0  0  0  0  0  0
   -0.9628   -0.9625    0.9555 C   0  0  0  0  0  0  0  0  0  0  0  0
   -1.4528   -1.3197   -0.3836 N   0  0  0  0  0  0  0  0  0  0  0  0
   -1.1458   -0.6005   -1.3854 N   0  0  0  0  0  0  0  0  0  0  0  0
   -0.4151    0.4276   -1.2295 N   0  0  0  0  0  2  0  0  0  0  0  0
   -1.4695   -1.9769    1.9677 C   0  0  0  0  0  0  0  0  0  0  0  0
   -1.1955   -3.2669    1.8673 C   0  0  0  0  0  0  0  0  0  0  0  0
   -1.6748   -3.8840    3.1313 C   0  0  0  0  0  0  0  0  0  0  0  0
   -2.1774   -2.8939    3.8497 C   0  0  0  0  0  0  0  0  0  0  0  0
   -2.7868   -3.0263    5.2359 C   0  0  0  0  0  0  0  0  0  0  0  0
   -2.0606   -1.7523    3.1523 Fe  0  0  0  0  0  0  0  0  0  0  0  0
   -1.0771   -0.6519    1.6866 C   0  0  0  0  0  0  0  0  0  0  0  0
   -0.5012   -0.0074    0.8283 O   0  0  0  0  0  0  0  0  0  0  0  0
   -2.8675   -3.2397    4.3619 C   0  0  0  0  0  0  0  0  0  0  0  0
   -3.3400   -4.1107    5.0702 O   0  0  0  0  0  0  0  0  0  0  0  0
   -0.8914   -2.9639    4.3735 C   0  0  0  0  0  0  0  0  0  0  0  0
   -0.2067   -3.6735    5.0887 O   0  0  0  0  0  0  0  0  0  0  0  0
    0.7072    1.0261    0.2054 H   0  0  0  0  0  0  0  0  0  0  0  0
    0.7072   -0.2081   -1.0315 H   0  0  0  0  0  0  0  0  0  0  0  0
    2.1339    0.0519   -0.0568 H   0  0  0  0  0  0  0  0  0  0  0  0
    0.9139   -1.9366    0.6933 H   0  0  0  0  0  0  0  0  0  0  0  0
    2.1158   -0.5427    2.5290 H   0  0  0  0  0  0  0  0  0  0  0  0
    0.5365   -0.0666    4.3139 H   0  0  0  0  0  0  0  0  0  0  0  0
   -0.8722   -0.3770    3.1503 H   0  0  0  0  0  0  0  0  0  0  0  0
   -1.3195    0.0116    1.2176 H   0  0  0  0  0  0  0  0  0  0  0  0
   -1.4858   -0.8483   -2.3146 H   0  0  0  0  0  0  0  0  0  0  0  0
   -2.2359   -2.4228    5.9268 H   0  0  0  0  0  0  0  0  0  0  0  0
   -3.8054   -2.6997    5.2104 H   0  0  0  0  0  0  0  0  0  0  0  0
   -2.7479   -4.0495    5.5464 H   0  0  0  0  0  0  0  0  0  0  0  0
  1  2  1  0  0  0  0
  1 21  1  0  0  0  0
  1 22  1  0  0  0  0
  1 23  1  0  0  0  0
  2  3  1  0  0  0  0
  2  5  1  0  0  0  0
  2 24  1  0  0  0  0
  3  4  2  0  0  0  0
  3 25  1  0  0  0  0
  4 26  1  0  0  0  0
  4 27  1  0  0  0  0
  5  6  1  0  0  0  0
  5  9  1  0  0  0  0
  5 28  1  0  0  0  0
  6  7  2  0  0  0  0
  7  8  2  0  0  0  0
  7 29  1  0  0  0  0
  9 10  2  0  0  0  0
  9 14  1  0  0  0  0
 10 11  1  0  0  0  0
 10 14  1  0  0  0  0
 11 12  2  0  0  0  0
 11 14  1  0  0  0  0
 12 13  1  0  0  0  0
 12 14  1  0  0  0  0
 13 30  1  0  0  0  0
 13 31  1  0  0  0  0
 13 32  1  0  0  0  0
 14 15  1  0  0  0  0
 14 17  1  0  0  0  0
 14 19  1  0  0  0  0
 15 16  3  0  0  0  0
 17 18  3  0  0  0  0
 19 20  3  0  0  0  0
M  END
$$$$
