
  --CCDC--092525    3D                              

 32 34  0  0  0  0  0  0  0  0999 V2000
    0.0134   -0.1417    0.0103 C      0
    1.4477    0.0032   -0.5106 C      0
    2.2436   -1.2199   -0.1619 C      0
    2.7674   -2.0690   -1.0039 C      0
    2.1182    1.2598    0.0757 C      0
    1.8940    1.1954    1.5304 N      0
    2.6317    0.4192    2.1459 N      0
    3.2367   -0.2999    2.9412 N      0
    1.5479    2.5387   -0.5029 C      0
    0.6974    3.3950   -1.3066 C      0
    0.5144    5.0181   -1.5627 C      0
    1.1331    6.2458   -1.0826 C      0
    1.4095    7.7259   -0.9149 C      0
    2.0807    4.5778   -0.1503 Fe     0
    1.8881    5.5223    1.8261 C      0
    1.7885    6.0118    2.8497 O      0
    3.5750    3.7816    1.2559 C      0
    4.3500    3.3685    1.9852 O      0
    4.1014    5.2829   -0.6549 C      0
    5.1473    5.6478   -0.9169 O      0
   -0.5714    0.7477   -0.2156 H      0
    0.0060   -0.2860    1.0888 H      0
   -0.4821   -0.9960   -0.4475 H      0
    1.4118    0.0984   -1.6071 H      0
    2.4004   -1.4176    0.8934 H      0
    2.6419   -1.9216   -2.0715 H      0
    3.3291   -2.9214   -0.6363 H      0
    3.1987    1.2173   -0.1304 H      0
    0.7421    8.3143   -1.5355 H      0
    2.4306    7.9675   -1.1963 H      0
    1.2659    8.0339    0.1164 H      0
    3.7198    0.2388    3.6573 H      0
  1  2  1
  2  3  1
  3  4  2
  2  5  1
  5  6  1
  6  7  2
  7  8  2
  5  9  1
  9 10  2
 10 11  1
 11 12  2
 12 13  1
 12 14  1
  9 14  1
 10 14  1
 11 14  1
 14 15  1
 15 16  3
 14 17  1
 17 18  3
 14 19  1
 19 20  3
  1 21  1
  1 22  1
  1 23  1
  2 24  1
  3 25  1
  4 26  1
  4 27  1
  5 28  1
 13 29  1
 13 30  1
 13 31  1
  8 32  1
M  END
$$$$
