
     RDKit          3D

  0  0  0  0  0  0  0  0  0  0999 V3000
M  V30 BEGIN CTAB
M  V30 COUNTS 47 52 0 0 0
M  V30 BEGIN ATOM
M  V30 1 C 1.836023 0.657910 2.168845 0
M  V30 2 C 2.012144 -0.381684 1.138286 0
M  V30 3 N 1.846089 -1.282961 0.257506 0
M  V30 4 C 2.156762 -2.280805 -0.708599 0
M  V30 5 C 1.013384 -2.897208 -1.381184 0
M  V30 6 C 0.203796 -1.926148 -2.237867 0
M  V30 7 N -0.634990 -1.127452 -1.483885 0
M  V30 8 C -1.630432 -0.518929 -1.026337 0
M  V30 9 C -2.234888 0.386734 -0.044958 0
M  V30 10 C -1.452126 1.330528 0.598586 0
M  V30 11 O -0.146459 1.295472 0.180950 0
M  V30 12 Cu 0.547735 -0.209876 -0.290171 0 VAL=4
M  V30 13 O 1.867528 0.661863 -1.842647 0
M  V30 14 C 3.065899 0.710597 -1.021755 0
M  V30 15 C 4.113697 1.292688 -1.754184 0
M  V30 16 C 5.302042 1.418629 -1.079953 0
M  V30 17 C 5.589729 1.049473 0.210473 0
M  V30 18 C 4.546769 0.487446 0.882943 0
M  V30 19 C 3.234466 0.251986 0.396236 0
M  V30 20 C -1.922100 2.229599 1.571442 0
M  V30 21 C -3.263173 2.064233 1.815804 0
M  V30 22 C -4.076640 1.147981 1.207797 0
M  V30 23 C -5.414779 1.044821 1.518612 0
M  V30 24 C -6.271920 0.148476 0.951865 0
M  V30 25 C -5.759461 -0.719982 -0.004387 0
M  V30 26 C -4.427351 -0.619499 -0.316049 0
M  V30 27 C -3.576973 0.290998 0.264851 0
M  V30 28 H 1.181556 0.187915 3.027091 0
M  V30 29 H 2.737901 0.914569 2.711850 0
M  V30 30 H 1.252782 1.540171 1.929155 0
M  V30 31 H 2.667879 -3.123631 -0.146477 0
M  V30 32 H 2.975472 -1.957856 -1.417118 0
M  V30 33 H 1.383166 -3.682058 -2.016292 0
M  V30 34 H 0.337568 -3.323592 -0.611042 0
M  V30 35 H 0.977918 -1.282066 -2.745673 0
M  V30 36 H -0.205707 -2.528619 -3.050770 0
M  V30 37 H -2.420608 -0.732159 -1.705441 0
M  V30 38 H 3.933327 1.588667 -2.744022 0
M  V30 39 H 6.127719 1.861577 -1.614039 0
M  V30 40 H 6.470500 1.120134 0.780063 0
M  V30 41 H 4.596722 0.180587 1.943925 0
M  V30 42 H -1.250222 2.936485 2.026849 0
M  V30 43 H -3.698051 2.701341 2.536736 0
M  V30 44 H -5.775972 1.739943 2.269537 0
M  V30 45 H -7.305696 0.119078 1.238160 0
M  V30 46 H -6.419638 -1.443702 -0.471273 0
M  V30 47 H -4.091388 -1.321674 -1.053241 0
M  V30 END ATOM
M  V30 BEGIN BOND
M  V30 1 1 1 2
M  V30 2 2 2 3
M  V30 3 1 3 4
M  V30 4 1 4 5
M  V30 5 1 5 6
M  V30 6 1 6 7
M  V30 7 2 7 8
M  V30 8 1 8 9
M  V30 9 2 9 10
M  V30 10 1 10 11
M  V30 11 1 11 12
M  V30 12 1 12 13
M  V30 13 1 13 14
M  V30 14 2 14 15
M  V30 15 1 15 16
M  V30 16 2 16 17
M  V30 17 1 17 18
M  V30 18 2 18 19
M  V30 19 1 10 20
M  V30 20 2 20 21
M  V30 21 1 21 22
M  V30 22 2 22 23
M  V30 23 1 23 24
M  V30 24 2 24 25
M  V30 25 1 25 26
M  V30 26 2 26 27
M  V30 27 1 19 2
M  V30 28 1 27 22
M  V30 29 9 3 12
M  V30 30 1 19 14
M  V30 31 9 7 12
M  V30 32 1 27 9
M  V30 33 1 1 28
M  V30 34 1 1 29
M  V30 35 1 1 30
M  V30 36 1 4 31
M  V30 37 1 4 32
M  V30 38 1 5 33
M  V30 39 1 5 34
M  V30 40 1 6 35
M  V30 41 1 6 36
M  V30 42 1 8 37
M  V30 43 1 15 38
M  V30 44 1 16 39
M  V30 45 1 17 40
M  V30 46 1 18 41
M  V30 47 1 20 42
M  V30 48 1 21 43
M  V30 49 1 23 44
M  V30 50 1 24 45
M  V30 51 1 25 46
M  V30 52 1 26 47
M  V30 END BOND
M  V30 END CTAB
M  END
