
 OpenBabel09252516353D

 73 85  0  0  0  0  0  0  0  0999 V2000
    1.0094   -0.0828   -0.0552 Cl  0  0  0  0  0  0  0  0  0  0  0  0
    3.7794   -0.0828   -0.0552 Zr  0  0  0  0  0  0  0  0  0  0  0  0
    6.2832   -0.9589    0.7426 Cl  0  0  0  0  0  0  0  0  0  0  0  0
    5.0801   -0.5262   -1.9666 C   0  0  0  0  0  0  0  0  0  0  0  0
    4.7303   -0.4704   -1.0064 C   0  0  0  0  0  0  0  0  0  0  0  0
    5.6715   -1.4431   -0.8700 C   0  0  0  0  0  0  0  0  0  0  0  0
    5.5668   -2.7630   -1.1687 C   0  0  0  0  0  0  0  0  0  0  0  0
    4.4853   -3.2413   -1.8704 C   0  0  0  0  0  0  0  0  0  0  0  0
    3.6903   -2.3744   -2.5857 C   0  0  0  0  0  0  0  0  0  0  0  0
    3.7277   -1.0374   -2.3435 C   0  0  0  0  0  0  0  0  0  0  0  0
    4.6196   -0.4531   -1.2823 C   0  0  0  0  0  0  0  0  0  0  0  0
    5.2890    0.8111   -1.8301 C   0  0  0  0  0  0  0  0  0  0  0  0
    6.1969    1.4134   -0.7574 Si  0  0  0  0  0  0  0  0  0  0  0  0
    7.0211    2.9514   -1.4296 C   0  0  0  0  0  0  0  0  0  0  0  0
    7.5040    0.1662   -0.2749 C   0  0  0  0  0  0  0  0  0  0  0  0
    5.3610    1.7781    0.4720 Si  0  0  0  0  0  0  0  0  0  0  0  0
    6.4702    2.5132    1.7858 C   0  0  0  0  0  0  0  0  0  0  0  0
    4.0552    3.0270   -0.0096 C   0  0  0  0  0  0  0  0  0  0  0  0
    4.6858    0.5189    1.0191 C   0  0  0  0  0  0  0  0  0  0  0  0
    2.7240   -3.0397    2.0794 C   0  0  0  0  0  3  0  0  0  0  0  0
    3.4720   -1.7743    1.6926 C   0  0  0  0  0  0  0  0  0  0  0  0
    4.2062   -1.1068    2.6231 C   0  0  0  0  0  0  0  0  0  0  0  0
    4.2626   -1.5714    3.8704 C   0  0  0  0  0  0  0  0  0  0  0  0
    4.9706   -0.9409    4.7976 C   0  0  0  0  0  0  0  0  0  0  0  0
    5.6720    0.2353    4.4585 C   0  0  0  0  0  0  0  0  0  0  0  0
    5.6099    0.6915    3.1860 C   0  0  0  0  0  0  0  0  0  0  0  0
    4.8644    0.0127    2.2691 C   0  0  0  0  0  0  0  0  0  0  0  0
    3.3828   -1.1350   -0.0625 Si  0  0  0  0  0  0  0  0  0  0  0  0
    2.6541    0.5871   -0.0624 C   0  0  0  0  0  0  0  0  0  0  0  0
    5.1024   -1.0842   -0.7955 C   0  0  0  0  0  0  0  0  0  0  0  0
    2.3028   -2.2688   -1.0848 C   0  0  0  0  0  0  0  0  0  0  0  0
    5.1276    1.2903   -0.5176 Si  0  0  0  0  0  0  0  0  0  0  0  0
    5.5764    1.3474    1.2968 C   0  0  0  0  0  0  0  0  0  0  0  0
    6.5684    1.9099   -1.5359 C   0  0  0  0  0  0  0  0  0  0  0  0
    3.6352    2.3744   -0.8250 C   0  0  0  0  0  0  0  0  0  0  0  0
    6.3345   -3.4389   -0.8547 H   0  0  0  0  0  0  0  0  0  0  0  0
    4.2615   -4.2876   -1.8604 H   0  0  0  0  0  0  0  0  0  0  0  0
    3.0359   -2.7573   -3.3407 H   0  0  0  0  0  0  0  0  0  0  0  0
    3.1076   -0.3847   -2.9217 H   0  0  0  0  0  0  0  0  0  0  0  0
    7.6564    3.3728   -0.6788 H   0  0  0  0  0  0  0  0  0  0  0  0
    7.6054    2.6963   -2.2890 H   0  0  0  0  0  0  0  0  0  0  0  0
    6.2733    3.6651   -1.7058 H   0  0  0  0  0  0  0  0  0  0  0  0
    7.0325   -0.7139    0.1099 H   0  0  0  0  0  0  0  0  0  0  0  0
    8.0881   -0.0889   -1.1343 H   0  0  0  0  0  0  0  0  0  0  0  0
    8.1393    0.5877    0.4759 H   0  0  0  0  0  0  0  0  0  0  0  0
    6.9422    3.3935    1.4023 H   0  0  0  0  0  0  0  0  0  0  0  0
    5.8853    2.7676    2.6449 H   0  0  0  0  0  0  0  0  0  0  0  0
    7.2177    1.7991    2.0619 H   0  0  0  0  0  0  0  0  0  0  0  0
    3.4204    2.6073   -0.7618 H   0  0  0  0  0  0  0  0  0  0  0  0
    3.4703    3.2809    0.8497 H   0  0  0  0  0  0  0  0  0  0  0  0
    4.5277    3.9075   -0.3922 H   0  0  0  0  0  0  0  0  0  0  0  0
    3.7305   -2.4635    4.1270 H   0  0  0  0  0  0  0  0  0  0  0  0
    5.0096   -1.3218    5.7968 H   0  0  0  0  0  0  0  0  0  0  0  0
    6.2442    0.7584    5.1959 H   0  0  0  0  0  0  0  0  0  0  0  0
    6.1407    1.5763    2.9025 H   0  0  0  0  0  0  0  0  0  0  0  0
    3.2720    1.2359    0.5225 H   0  0  0  0  0  0  0  0  0  0  0  0
    2.6030    0.9529   -1.0666 H   0  0  0  0  0  0  0  0  0  0  0  0
    1.6701    0.5580    0.3570 H   0  0  0  0  0  0  0  0  0  0  0  0
    5.5194   -2.0696   -0.7956 H   0  0  0  0  0  0  0  0  0  0  0  0
    5.0514   -0.7184   -1.7998 H   0  0  0  0  0  0  0  0  0  0  0  0
    5.7204   -0.4354   -0.2106 H   0  0  0  0  0  0  0  0  0  0  0  0
    2.7197   -3.2542   -1.0848 H   0  0  0  0  0  0  0  0  0  0  0  0
    1.3188   -2.2979   -0.6653 H   0  0  0  0  0  0  0  0  0  0  0  0
    2.2517   -1.9030   -2.0890 H   0  0  0  0  0  0  0  0  0  0  0  0
    6.4303    0.7271    1.4727 H   0  0  0  0  0  0  0  0  0  0  0  0
    5.8037    2.3548    1.5765 H   0  0  0  0  0  0  0  0  0  0  0  0
    4.7519    0.9928    1.8795 H   0  0  0  0  0  0  0  0  0  0  0  0
    6.3116    1.8773   -2.5741 H   0  0  0  0  0  0  0  0  0  0  0  0
    6.7958    2.9174   -1.2562 H   0  0  0  0  0  0  0  0  0  0  0  0
    7.4224    1.2896   -1.3600 H   0  0  0  0  0  0  0  0  0  0  0  0
    3.3784    2.3418   -1.8632 H   0  0  0  0  0  0  0  0  0  0  0  0
    2.8108    2.0199   -0.2423 H   0  0  0  0  0  0  0  0  0  0  0  0
    3.8625    3.3819   -0.5453 H   0  0  0  0  0  0  0  0  0  0  0  0
  1  2  1  0  0  0  0
  2  3  1  0  0  0  0
  2  4  1  0  0  0  0
  2  5  1  0  0  0  0
  2  6  1  0  0  0  0
  2 11  1  0  0  0  0
  2 12  1  0  0  0  0
  2 19  1  0  0  0  0
  2 20  1  0  0  0  0
  2 21  1  0  0  0  0
  2 22  1  0  0  0  0
  2 27  1  0  0  0  0
  4  5  1  0  0  0  0
  4 12  2  0  0  0  0
  5  6  2  0  0  0  0
  5 32  1  0  0  0  0
  6  7  1  0  0  0  0
  6 11  1  0  0  0  0
  7  8  2  0  0  0  0
  7 36  1  0  0  0  0
  8  9  1  0  0  0  0
  8 37  1  0  0  0  0
  9 10  2  0  0  0  0
  9 38  1  0  0  0  0
 10 11  1  0  0  0  0
 10 39  1  0  0  0  0
 11 12  1  0  0  0  0
 12 13  1  0  0  0  0
 13 14  1  0  0  0  0
 13 15  1  0  0  0  0
 13 16  1  0  0  0  0
 14 40  1  0  0  0  0
 14 41  1  0  0  0  0
 14 42  1  0  0  0  0
 15 43  1  0  0  0  0
 15 44  1  0  0  0  0
 15 45  1  0  0  0  0
 16 17  1  0  0  0  0
 16 18  1  0  0  0  0
 16 19  1  0  0  0  0
 17 46  1  0  0  0  0
 17 47  1  0  0  0  0
 17 48  1  0  0  0  0
 18 49  1  0  0  0  0
 18 50  1  0  0  0  0
 18 51  1  0  0  0  0
 19 20  1  0  0  0  0
 19 27  2  0  0  0  0
 20 21  1  0  0  0  0
 21 22  2  0  0  0  0
 21 28  1  0  0  0  0
 22 23  1  0  0  0  0
 22 27  1  0  0  0  0
 23 24  2  0  0  0  0
 23 52  1  0  0  0  0
 24 25  1  0  0  0  0
 24 53  1  0  0  0  0
 25 26  2  0  0  0  0
 25 54  1  0  0  0  0
 26 27  1  0  0  0  0
 26 55  1  0  0  0  0
 28 29  1  0  0  0  0
 28 30  1  0  0  0  0
 28 31  1  0  0  0  0
 29 56  1  0  0  0  0
 29 57  1  0  0  0  0
 29 58  1  0  0  0  0
 30 59  1  0  0  0  0
 30 60  1  0  0  0  0
 30 61  1  0  0  0  0
 31 62  1  0  0  0  0
 31 63  1  0  0  0  0
 31 64  1  0  0  0  0
 32 33  1  0  0  0  0
 32 34  1  0  0  0  0
 32 35  1  0  0  0  0
 33 65  1  0  0  0  0
 33 66  1  0  0  0  0
 33 67  1  0  0  0  0
 34 68  1  0  0  0  0
 34 69  1  0  0  0  0
 34 70  1  0  0  0  0
 35 71  1  0  0  0  0
 35 72  1  0  0  0  0
 35 73  1  0  0  0  0
M  END
$$$$
