
     RDKit          3D

  0  0  0  0  0  0  0  0  0  0999 V3000
M  V30 BEGIN CTAB
M  V30 COUNTS 47 52 0 0 0
M  V30 BEGIN ATOM
M  V30 1 C -1.505811 -1.394631 -0.311135 0
M  V30 2 N -0.310688 -1.906408 -0.324142 0
M  V30 3 C 0.831146 -2.720187 -0.379451 0
M  V30 4 C 1.617913 -2.469889 -1.658924 0
M  V30 5 C 2.633381 -1.383685 -1.589155 0
M  V30 6 N 2.101267 -0.170716 -1.261094 0
M  V30 7 C 1.930500 1.063772 -0.879367 0
M  V30 8 C 1.288357 2.350099 -0.560276 0
M  V30 9 C 3.079074 0.992870 0.141742 0
M  V30 10 C 4.225096 1.810953 0.268584 0
M  V30 11 C 5.189184 1.556534 1.257864 0
M  V30 12 C 4.974569 0.484522 2.096869 0
M  V30 13 C 3.901042 -0.384889 2.082909 0
M  V30 14 C 2.950532 -0.129085 1.108609 0
M  V30 15 O 1.733965 -0.922501 0.964457 0
M  V30 16 Cu 0.529082 -0.390408 -0.036473 0 CFG=2 VAL=4
M  V30 17 O -0.321479 0.466991 -1.073643 0
M  V30 18 C -1.626777 0.994533 -0.701245 0
M  V30 19 C -2.314250 2.199666 -0.713873 0
M  V30 20 C -3.597565 2.186214 -0.215067 0
M  V30 21 C -4.155653 1.028923 0.267543 0
M  V30 22 C -5.441431 1.069426 0.760577 0
M  V30 23 C -6.120429 -0.015085 1.277002 0
M  V30 24 C -5.439688 -1.231331 1.292744 0
M  V30 25 C -4.149109 -1.334586 0.812379 0
M  V30 26 C -3.553557 -0.202003 0.317105 0
M  V30 27 C -2.277857 -0.160403 -0.187169 0
M  V30 28 H -2.123575 -2.217700 -0.488975 0
M  V30 29 H 0.559785 -3.804580 -0.445240 0
M  V30 30 H 1.513636 -2.679018 0.475436 0
M  V30 31 H 0.806622 -2.195688 -2.410818 0
M  V30 32 H 2.008920 -3.416860 -2.015154 0
M  V30 33 H 3.104904 -1.340627 -2.604733 0
M  V30 34 H 3.439018 -1.769155 -0.903846 0
M  V30 35 H 2.043991 3.124085 -0.562789 0
M  V30 36 H 0.637668 2.673481 -1.455405 0
M  V30 37 H 0.623629 2.457139 0.265730 0
M  V30 38 H 4.150590 2.624124 -0.480496 0
M  V30 39 H 5.980480 2.247579 1.225300 0
M  V30 40 H 5.726941 0.309972 2.840747 0
M  V30 41 H 3.745148 -1.199586 2.726828 0
M  V30 42 H -1.702774 2.976645 -1.135998 0
M  V30 43 H -4.063414 3.151692 -0.257757 0
M  V30 44 H -5.993676 1.989211 0.763847 0
M  V30 45 H -7.118476 0.061822 1.649070 0
M  V30 46 H -5.905634 -2.126158 1.682086 0
M  V30 47 H -3.604594 -2.255073 0.817081 0
M  V30 END ATOM
M  V30 BEGIN BOND
M  V30 1 2 1 2
M  V30 2 1 2 3
M  V30 3 1 3 4
M  V30 4 1 4 5
M  V30 5 1 5 6
M  V30 6 2 6 7
M  V30 7 1 7 8
M  V30 8 1 7 9
M  V30 9 2 9 10
M  V30 10 1 10 11
M  V30 11 2 11 12
M  V30 12 1 12 13
M  V30 13 2 13 14
M  V30 14 1 14 15
M  V30 15 1 15 16
M  V30 16 1 16 17
M  V30 17 1 17 18
M  V30 18 2 18 19
M  V30 19 1 19 20
M  V30 20 2 20 21
M  V30 21 1 21 22
M  V30 22 2 22 23
M  V30 23 1 23 24
M  V30 24 2 24 25
M  V30 25 1 25 26
M  V30 26 2 26 27
M  V30 27 1 27 1
M  V30 28 9 2 16
M  V30 29 1 27 18
M  V30 30 9 6 16
M  V30 31 1 26 21
M  V30 32 1 14 9
M  V30 33 1 1 28
M  V30 34 1 3 29
M  V30 35 1 3 30
M  V30 36 1 4 31
M  V30 37 1 4 32
M  V30 38 1 5 33
M  V30 39 1 5 34
M  V30 40 1 8 35
M  V30 41 1 8 36
M  V30 42 1 8 37
M  V30 43 1 10 38
M  V30 44 1 11 39
M  V30 45 1 12 40
M  V30 46 1 13 41
M  V30 47 1 19 42
M  V30 48 1 20 43
M  V30 49 1 22 44
M  V30 50 1 23 45
M  V30 51 1 24 46
M  V30 52 1 25 47
M  V30 END BOND
M  V30 END CTAB
M  END
