
     RDKit          3D

 62 63  0  0  0  0  0  0  0  0999 V2000
   -0.0355    2.2809   -0.5802 C   0  0  0  0  0  0  0  0  0  0  0  0
   -1.2051    0.7264   -0.1308 Pt  0  0  0  0  0  6  0  0  0  0  0  0
   -1.6290    0.0724   -1.8163 C   0  0  0  0  0  0  0  0  0  0  0  0
   -1.4333    1.2915    1.6175 C   0  0  0  0  0  0  0  0  0  0  0  0
    0.5107   -0.2550   -0.0490 N   0  0  0  0  0  0  0  0  0  0  0  0
    1.2980   -0.4189    0.9497 N   0  0  0  0  0  0  0  0  0  0  0  0
    2.3892   -1.0755    0.7200 C   0  0  0  0  0  0  0  0  0  0  0  0
    3.2467   -1.2183    1.9190 C   0  0  0  0  0  0  0  0  0  0  0  0
    4.5157   -0.4572    1.8428 C   0  0  0  0  0  0  0  0  0  0  0  0
    5.0753   -0.3218    0.4521 C   0  0  0  0  0  0  0  0  0  0  0  0
    5.1691   -1.6087   -0.2873 C   0  0  0  0  0  0  0  0  0  0  0  0
    4.5518   -1.5427   -1.6666 C   0  0  0  0  0  0  0  0  0  0  0  0
    3.1314   -2.0926   -1.5840 C   0  0  0  0  0  0  0  0  0  0  0  0
    2.3339   -1.3875   -0.5631 C   0  0  0  0  0  0  0  0  0  0  0  0
    1.2079   -0.8805   -0.9651 N   0  0  0  0  0  0  0  0  0  0  0  0
   -2.6232    1.8851   -0.6354 P   0  0  0  0  0  4  0  0  0  0  0  0
   -4.2986    1.1987   -0.6828 C   0  0  0  0  0  0  0  0  0  0  0  0
   -2.9305    3.4327    0.3372 C   0  0  0  0  0  0  0  0  0  0  0  0
   -2.5871    2.8594   -2.2519 C   0  0  0  0  0  0  0  0  0  0  0  0
   -2.0356   -0.9608    0.6242 P   0  0  0  0  0  4  0  0  0  0  0  0
   -3.7051   -0.8562    1.1577 C   0  0  0  0  0  0  0  0  0  0  0  0
   -1.9555   -2.4549   -0.4331 C   0  0  0  0  0  0  0  0  0  0  0  0
   -1.1578   -1.7570    2.0797 C   0  0  0  0  0  0  0  0  0  0  0  0
    0.8686    2.3920    0.0726 H   0  0  0  0  0  0  0  0  0  0  0  0
    0.3448    2.2118   -1.5840 H   0  0  0  0  0  0  0  0  0  0  0  0
   -0.4148    3.2197   -0.3952 H   0  0  0  0  0  0  0  0  0  0  0  0
   -1.0613    0.5478   -2.6936 H   0  0  0  0  0  0  0  0  0  0  0  0
   -1.1067   -0.9181   -2.1322 H   0  0  0  0  0  0  0  0  0  0  0  0
   -2.5602   -0.2556   -2.2634 H   0  0  0  0  0  0  0  0  0  0  0  0
   -1.2339    2.3944    1.8749 H   0  0  0  0  0  0  0  0  0  0  0  0
   -0.5782    1.0108    2.3286 H   0  0  0  0  0  0  0  0  0  0  0  0
   -2.2954    1.2480    2.2794 H   0  0  0  0  0  0  0  0  0  0  0  0
    2.7111   -0.8679    2.8505 H   0  0  0  0  0  0  0  0  0  0  0  0
    3.3254   -2.3076    2.0543 H   0  0  0  0  0  0  0  0  0  0  0  0
    5.2809   -0.9411    2.4770 H   0  0  0  0  0  0  0  0  0  0  0  0
    4.3542    0.5586    2.2806 H   0  0  0  0  0  0  0  0  0  0  0  0
    4.3421    0.3330   -0.1028 H   0  0  0  0  0  0  0  0  0  0  0  0
    6.0328    0.2067    0.4226 H   0  0  0  0  0  0  0  0  0  0  0  0
    6.2388   -1.8698   -0.4216 H   0  0  0  0  0  0  0  0  0  0  0  0
    4.7081   -2.4650    0.2427 H   0  0  0  0  0  0  0  0  0  0  0  0
    5.0791   -2.1200   -2.4250 H   0  0  0  0  0  0  0  0  0  0  0  0
    4.4492   -0.4986   -2.0303 H   0  0  0  0  0  0  0  0  0  0  0  0
    2.7267   -1.9862   -2.5986 H   0  0  0  0  0  0  0  0  0  0  0  0
    3.1219   -3.1708   -1.3257 H   0  0  0  0  0  0  0  0  0  0  0  0
   -4.8607    1.2433    0.2322 H   0  0  0  0  0  0  0  0  0  0  0  0
   -4.9282    1.8667   -1.3610 H   0  0  0  0  0  0  0  0  0  0  0  0
   -4.3337    0.2601   -1.2863 H   0  0  0  0  0  0  0  0  0  0  0  0
   -3.0810    3.1189    1.4127 H   0  0  0  0  0  0  0  0  0  0  0  0
   -3.8453    3.8611    0.0246 H   0  0  0  0  0  0  0  0  0  0  0  0
   -2.0964    4.1206    0.3053 H   0  0  0  0  0  0  0  0  0  0  0  0
   -2.4141    2.1340   -3.0693 H   0  0  0  0  0  0  0  0  0  0  0  0
   -3.5560    3.2814   -2.3973 H   0  0  0  0  0  0  0  0  0  0  0  0
   -1.7285    3.5351   -2.2382 H   0  0  0  0  0  0  0  0  0  0  0  0
   -3.8695    0.0243    1.8507 H   0  0  0  0  0  0  0  0  0  0  0  0
   -4.5117   -1.0892    0.4768 H   0  0  0  0  0  0  0  0  0  0  0  0
   -3.8433   -1.6903    1.9348 H   0  0  0  0  0  0  0  0  0  0  0  0
   -2.4587   -2.2637   -1.4105 H   0  0  0  0  0  0  0  0  0  0  0  0
   -2.5705   -3.1598    0.0816 H   0  0  0  0  0  0  0  0  0  0  0  0
   -0.9378   -2.8373   -0.5450 H   0  0  0  0  0  0  0  0  0  0  0  0
   -1.1322   -0.9617    2.8601 H   0  0  0  0  0  0  0  0  0  0  0  0
   -1.8360   -2.5263    2.3943 H   0  0  0  0  0  0  0  0  0  0  0  0
   -0.1627   -2.0987    1.7693 H   0  0  0  0  0  0  0  0  0  0  0  0
  1  2  1  0
  2  3  1  0
  2  4  1  0
  2  5  1  0
  5  6  1  0
  6  7  2  0
  7  8  1  0
  8  9  1  0
  9 10  1  0
 10 11  1  0
 11 12  1  0
 12 13  1  0
 13 14  1  0
 14 15  2  0
  2 16  1  0
 16 17  1  0
 16 18  1  0
 16 19  1  0
  2 20  1  0
 20 21  1  0
 20 22  1  0
 20 23  1  0
 15  5  1  0
 14  7  1  0
  1 24  1  0
  1 25  1  0
  1 26  1  0
  3 27  1  0
  3 28  1  0
  3 29  1  0
  4 30  1  0
  4 31  1  0
  4 32  1  0
  8 33  1  0
  8 34  1  0
  9 35  1  0
  9 36  1  0
 10 37  1  0
 10 38  1  0
 11 39  1  0
 11 40  1  0
 12 41  1  0
 12 42  1  0
 13 43  1  0
 13 44  1  0
 17 45  1  0
 17 46  1  0
 17 47  1  0
 18 48  1  0
 18 49  1  0
 18 50  1  0
 19 51  1  0
 19 52  1  0
 19 53  1  0
 21 54  1  0
 21 55  1  0
 21 56  1  0
 22 57  1  0
 22 58  1  0
 22 59  1  0
 23 60  1  0
 23 61  1  0
 23 62  1  0
M  RAD  2  16   2  20   2
M  END
