
     RDKit          3D

  0  0  0  0  0  0  0  0  0  0999 V3000
M  V30 BEGIN CTAB
M  V30 COUNTS 79 83 0 0 0
M  V30 BEGIN ATOM
M  V30 1 Cl 0.775435 -0.851003 -2.341384 0
M  V30 2 Ru 0.821414 -0.180981 -0.143243 0 VAL=6
M  V30 3 C 1.822534 1.475678 -0.784523 0
M  V30 4 C 3.296222 1.372905 -0.613195 0
M  V30 5 C 4.227400 1.732049 -1.596770 0
M  V30 6 C 5.584986 1.629503 -1.389395 0
M  V30 7 C 5.998285 1.156996 -0.169351 0
M  V30 8 C 5.057296 0.812666 0.775513 0
M  V30 9 C 3.709143 0.896975 0.615070 0
M  V30 10 C 2.670011 0.518889 1.601828 0
M  V30 11 C 3.231073 0.355375 2.981109 0
M  V30 12 N 1.938711 -0.681737 1.201575 0
M  V30 13 C 2.932220 -1.647826 0.901890 0
M  V30 14 C 1.153764 -1.120538 2.293025 0
M  V30 15 Cl 1.288614 -1.673633 -2.250882 0
M  V30 16 C -1.105969 -0.207456 -0.431363 0 RAD=2 VAL=3
M  V30 17 N -1.795788 -1.355163 -0.120355 0
M  V30 18 C -2.666034 -0.956737 0.966383 0
M  V30 19 C -3.023196 0.482789 0.612682 0
M  V30 20 N -1.725652 0.946147 0.096473 0
M  V30 21 C -1.498717 2.311311 0.231917 0
M  V30 22 C -0.983499 3.012400 1.296778 0
M  V30 23 C -0.663278 2.228519 2.522021 0
M  V30 24 C -0.754696 4.367542 1.365866 0
M  V30 25 C -1.082929 5.089930 0.238795 0
M  V30 26 C -0.890437 6.562711 0.172991 0
M  V30 27 C -1.604775 4.455927 -0.867353 0
M  V30 28 C -1.820396 3.073247 -0.893745 0
M  V30 29 C -2.377194 2.465404 -2.128036 0
M  V30 30 C -1.877976 -2.673744 -0.622392 0
M  V30 31 C -2.793254 -2.691916 -1.687740 0
M  V30 32 C -3.550879 -1.549231 -2.245866 0
M  V30 33 C -3.054632 -3.905144 -2.341568 0
M  V30 34 C -2.453158 -5.094793 -1.990146 0
M  V30 35 C -2.748660 -6.365935 -2.699133 0
M  V30 36 C -1.565061 -5.040127 -0.946325 0
M  V30 37 C -1.300295 -3.859718 -0.297085 0
M  V30 38 C -0.363248 -3.791977 0.823034 0
M  V30 39 H 1.706218 2.492586 -1.223478 0
M  V30 40 H 3.810506 2.094028 -2.526986 0
M  V30 41 H 6.253714 1.921303 -2.185005 0
M  V30 42 H 7.056882 1.074557 -0.000340 0
M  V30 43 H 5.480573 0.448834 1.694259 0
M  V30 44 H 1.938727 1.342723 1.609521 0
M  V30 45 H 2.550362 0.862797 3.734822 0
M  V30 46 H 4.169763 0.984786 3.059355 0
M  V30 47 H 3.419681 -0.677540 3.298765 0
M  V30 48 H 3.001536 -1.722316 -0.223442 0
M  V30 49 H 3.983699 -1.352491 1.199927 0
M  V30 50 H 2.763004 -2.666978 1.311946 0
M  V30 51 H 1.390581 -0.653274 3.283261 0
M  V30 52 H 0.095401 -1.066292 2.050123 0
M  V30 53 H 1.379445 -2.213525 2.483429 0
M  V30 54 H -2.250706 -1.019123 1.962080 0
M  V30 55 H -3.639648 -1.492344 0.964385 0
M  V30 56 H -3.344185 1.045057 1.511383 0
M  V30 57 H -3.823691 0.579157 -0.115550 0
M  V30 58 H -0.703673 1.154300 2.380528 0
M  V30 59 H 0.336659 2.543848 2.842313 0
M  V30 60 H -1.366240 2.590039 3.318383 0
M  V30 61 H -0.344544 4.838003 2.244625 0
M  V30 62 H -0.553616 6.894764 1.198105 0
M  V30 63 H -1.895118 7.056179 0.066533 0
M  V30 64 H -0.163796 6.895302 -0.568817 0
M  V30 65 H -1.855898 5.049372 -1.743357 0
M  V30 66 H -1.629817 1.710781 -2.504181 0
M  V30 67 H -3.324241 1.947102 -2.003378 0
M  V30 68 H -2.429062 3.230718 -2.925357 0
M  V30 69 H -3.484446 -1.656013 -3.371165 0
M  V30 70 H -4.637041 -1.583013 -2.031438 0
M  V30 71 H -3.079267 -0.561226 -2.076361 0
M  V30 72 H -3.756284 -3.990860 -3.179980 0
M  V30 73 H -1.913476 -7.070582 -2.508563 0
M  V30 74 H -3.659280 -6.839748 -2.260195 0
M  V30 75 H -2.850590 -6.245174 -3.792984 0
M  V30 76 H -1.038812 -5.915099 -0.589573 0
M  V30 77 H -0.203866 -4.800823 1.297870 0
M  V30 78 H -0.809261 -3.184181 1.633279 0
M  V30 79 H 0.612423 -3.344941 0.548162 0
M  V30 END ATOM
M  V30 BEGIN BOND
M  V30 1 1 1 2
M  V30 2 2 2 3
M  V30 3 1 3 4
M  V30 4 2 4 5
M  V30 5 1 5 6
M  V30 6 2 6 7
M  V30 7 1 7 8
M  V30 8 2 8 9
M  V30 9 1 9 10
M  V30 10 1 10 11
M  V30 11 1 10 12
M  V30 12 1 12 13
M  V30 13 1 12 14
M  V30 14 1 2 15
M  V30 15 1 2 16
M  V30 16 1 16 17
M  V30 17 1 17 18
M  V30 18 1 18 19
M  V30 19 1 19 20
M  V30 20 1 20 21
M  V30 21 2 21 22
M  V30 22 1 22 23
M  V30 23 1 22 24
M  V30 24 2 24 25
M  V30 25 1 25 26
M  V30 26 1 25 27
M  V30 27 2 27 28
M  V30 28 1 28 29
M  V30 29 1 17 30
M  V30 30 2 30 31
M  V30 31 1 31 32
M  V30 32 1 31 33
M  V30 33 2 33 34
M  V30 34 1 34 35
M  V30 35 1 34 36
M  V30 36 2 36 37
M  V30 37 1 37 38
M  V30 38 9 12 2
M  V30 39 1 20 16
M  V30 40 1 28 21
M  V30 41 1 37 30
M  V30 42 1 9 4
M  V30 43 1 3 39
M  V30 44 1 5 40
M  V30 45 1 6 41
M  V30 46 1 7 42
M  V30 47 1 8 43
M  V30 48 1 10 44
M  V30 49 1 11 45
M  V30 50 1 11 46
M  V30 51 1 11 47
M  V30 52 1 13 48
M  V30 53 1 13 49
M  V30 54 1 13 50
M  V30 55 1 14 51
M  V30 56 1 14 52
M  V30 57 1 14 53
M  V30 58 1 18 54
M  V30 59 1 18 55
M  V30 60 1 19 56
M  V30 61 1 19 57
M  V30 62 1 23 58
M  V30 63 1 23 59
M  V30 64 1 23 60
M  V30 65 1 24 61
M  V30 66 1 26 62
M  V30 67 1 26 63
M  V30 68 1 26 64
M  V30 69 1 27 65
M  V30 70 1 29 66
M  V30 71 1 29 67
M  V30 72 1 29 68
M  V30 73 1 32 69
M  V30 74 1 32 70
M  V30 75 1 32 71
M  V30 76 1 33 72
M  V30 77 1 35 73
M  V30 78 1 35 74
M  V30 79 1 35 75
M  V30 80 1 36 76
M  V30 81 1 38 77
M  V30 82 1 38 78
M  V30 83 1 38 79
M  V30 END BOND
M  V30 END CTAB
M  END
