
 OpenBabel09252518043D

 71 77  0  0  0  0  0  0  0  0999 V2000
    1.0316   -0.0708    0.0631 C   0  0  0  0  0  0  0  0  0  0  0  0
    0.4283    0.5929    1.6353 S   0  0  0  0  0  0  0  0  0  0  0  0
   -1.3817    0.5929    1.6353 C   0  0  0  0  0  0  0  0  0  0  0  0
    0.9384   -0.2777    2.7859 O   0  0  0  0  0  0  0  0  0  0  0  0
    0.3055    0.3160    5.2581 U   0  3  0  0  0  0  0  0  0  0  0  0
    1.3451   -0.8195    3.1381 O   0  0  0  0  0  0  0  0  0  0  0  0
    2.0453   -2.0486    3.2623 C   0  0  0  0  0  0  0  0  0  0  0  0
    2.5496   -2.5994    2.2339 O   0  0  0  0  0  0  0  0  0  0  0  0
    6.6482    0.3894    3.9236 C   0  0  0  0  0  0  0  0  0  0  0  0
    5.6391    1.1219    4.7021 N   0  0  0  0  0  0  0  0  0  0  0  0
    5.5798    1.0507    6.2284 C   0  0  0  0  0  0  0  0  0  0  0  0
    4.9828   -0.2905    6.6578 C   0  0  0  0  0  0  0  0  0  0  0  0
    3.7676   -0.0481    7.5538 N   0  0  0  0  0  4  0  0  0  0  0  0
    2.5015    0.0200    6.6975 C   0  0  0  0  0  0  0  0  0  0  0  0
    1.7986    1.3601    6.9286 C   0  0  0  0  0  0  0  0  0  0  0  0
    0.7539    1.5939    5.8365 N   0  0  0  0  0  0  0  0  0  0  0  0
    1.2907    2.5252    4.7489 C   0  0  0  0  0  0  0  0  0  0  0  0
    2.6710    2.0586    4.2853 C   0  0  0  0  0  0  0  0  0  0  0  0
    3.3095    3.1454    3.4172 N   0  0  0  0  0  0  0  0  0  0  0  0
    4.7213    2.7188    3.0108 C   0  0  0  0  0  0  0  0  0  0  0  0
    5.5992    2.5846    4.2556 C   0  0  0  0  0  0  0  0  0  0  0  0
   -3.2501   -0.3154    5.4745 C   0  0  0  0  0  0  0  0  0  0  0  0
   -2.8067   -1.0314    4.2091 C   0  0  0  0  0  0  0  0  0  0  0  0
   -3.6554   -1.6658    3.5073 O   0  0  0  0  0  0  0  0  0  0  0  0
   -1.4441   -0.9917    3.8112 O   0  0  0  0  0  0  0  0  0  0  0  0
   -0.5134    2.1723    6.4394 C   0  0  0  0  0  0  0  0  0  0  0  0
   -1.4727    1.2513    6.2257 C   0  0  0  0  0  0  0  0  0  0  0  0
   -2.6761    1.3698    6.6169 O   0  0  0  0  0  0  0  0  0  0  0  0
   -1.0022    0.1966    5.5508 O   0  0  0  0  0  0  0  0  0  0  0  0
   -0.8500    2.5243    4.4502 O   0  0  0  0  0  0  0  0  0  0  0  0
   -1.5038    3.4623    5.4676 S   0  0  0  0  0  0  0  0  0  0  0  0
   -0.2589    4.0286    6.6531 C   0  0  0  0  0  0  0  0  0  0  0  0
   -2.2096    4.8891    4.6061 C   0  0  0  0  0  0  0  0  0  0  0  0
    0.6749    0.5379   -0.7413 H   0  0  0  0  0  0  0  0  0  0  0  0
    0.6749   -1.0719   -0.0617 H   0  0  0  0  0  0  0  0  0  0  0  0
    2.1016   -0.0708    0.0631 H   0  0  0  0  0  0  0  0  0  0  0  0
   -1.7384   -0.4081    1.5104 H   0  0  0  0  0  0  0  0  0  0  0  0
   -1.7384    0.9853    2.5646 H   0  0  0  0  0  0  0  0  0  0  0  0
   -1.7384    1.2016    0.8308 H   0  0  0  0  0  0  0  0  0  0  0  0
    6.3865    0.4155    2.8864 H   0  0  0  0  0  0  0  0  0  0  0  0
    7.6058    0.8464    4.0614 H   0  0  0  0  0  0  0  0  0  0  0  0
    5.8022    2.0425    5.1098 H   0  0  0  0  0  0  0  0  0  0  0  0
    6.5686    1.1429    6.6266 H   0  0  0  0  0  0  0  0  0  0  0  0
    4.9685    1.8472    6.5983 H   0  0  0  0  0  0  0  0  0  0  0  0
    5.7174   -0.8493    7.1991 H   0  0  0  0  0  0  0  0  0  0  0  0
    4.6817   -0.8402    5.7906 H   0  0  0  0  0  0  0  0  0  0  0  0
    4.2301   -0.0338    8.4628 H   0  0  0  0  0  0  0  0  0  0  0  0
    1.8437   -0.7787    6.9704 H   0  0  0  0  0  0  0  0  0  0  0  0
    2.7647   -0.0709    5.6644 H   0  0  0  0  0  0  0  0  0  0  0  0
    2.5223    2.1477    6.8987 H   0  0  0  0  0  0  0  0  0  0  0  0
    1.3169    1.3482    7.8839 H   0  0  0  0  0  0  0  0  0  0  0  0
   -0.1429    2.0797    5.8440 H   0  0  0  0  0  0  0  0  0  0  0  0
    1.3732    3.5148    5.1474 H   0  0  0  0  0  0  0  0  0  0  0  0
    0.6183    2.5204    3.9166 H   0  0  0  0  0  0  0  0  0  0  0  0
    2.5715    1.1583    3.7156 H   0  0  0  0  0  0  0  0  0  0  0  0
    3.2903    1.8731    5.1380 H   0  0  0  0  0  0  0  0  0  0  0  0
    3.4011    4.0756    3.0089 H   0  0  0  0  0  0  0  0  0  0  0  0
    5.1405    3.4577    2.3603 H   0  0  0  0  0  0  0  0  0  0  0  0
    4.6761    1.7773    2.5045 H   0  0  0  0  0  0  0  0  0  0  0  0
    5.1928    3.1848    5.0427 H   0  0  0  0  0  0  0  0  0  0  0  0
    6.5915    2.9145    4.0285 H   0  0  0  0  0  0  0  0  0  0  0  0
   -3.6714   -1.0242    6.1564 H   0  0  0  0  0  0  0  0  0  0  0  0
   -2.4064    0.1597    5.9298 H   0  0  0  0  0  0  0  0  0  0  0  0
   -0.3940    2.3832    7.4816 H   0  0  0  0  0  0  0  0  0  0  0  0
   -0.7678    3.0941    5.9593 H   0  0  0  0  0  0  0  0  0  0  0  0
    0.5169    4.5510    6.1335 H   0  0  0  0  0  0  0  0  0  0  0  0
   -0.7160    4.6843    7.3644 H   0  0  0  0  0  0  0  0  0  0  0  0
    0.1584    3.1851    7.1624 H   0  0  0  0  0  0  0  0  0  0  0  0
   -1.4338    5.4116    4.0864 H   0  0  0  0  0  0  0  0  0  0  0  0
   -2.9456    4.5543    3.9052 H   0  0  0  0  0  0  0  0  0  0  0  0
   -2.6667    5.5448    5.3174 H   0  0  0  0  0  0  0  0  0  0  0  0
  1  2  1  0  0  0  0
  1 34  1  0  0  0  0
  1 35  1  0  0  0  0
  1 36  1  0  0  0  0
  2  3  1  0  0  0  0
  2  4  2  0  0  0  0
  3 37  1  0  0  0  0
  3 38  1  0  0  0  0
  3 39  1  0  0  0  0
  4  5  1  0  0  0  0
  5  6  1  0  0  0  0
  5 10  1  0  0  0  0
  5 13  1  0  0  0  0
  5 16  1  0  0  0  0
  5 19  1  0  0  0  0
  5 25  1  0  0  0  0
  5 29  1  0  0  0  0
  5 30  1  0  0  0  0
  6  7  1  0  0  0  0
  7  8  2  0  0  0  0
  7  9  1  0  0  0  0
  9 10  1  0  0  0  0
  9 40  1  0  0  0  0
  9 41  1  0  0  0  0
 10 11  1  0  0  0  0
 10 21  1  0  0  0  0
 10 42  1  0  0  0  0
 11 12  1  0  0  0  0
 11 43  1  0  0  0  0
 11 44  1  0  0  0  0
 12 13  1  0  0  0  0
 12 45  1  0  0  0  0
 12 46  1  0  0  0  0
 13 14  1  0  0  0  0
 13 47  1  0  0  0  0
 14 15  1  0  0  0  0
 14 48  1  0  0  0  0
 14 49  1  0  0  0  0
 15 16  1  0  0  0  0
 15 50  1  0  0  0  0
 15 51  1  0  0  0  0
 16 17  1  0  0  0  0
 16 26  1  0  0  0  0
 16 52  1  0  0  0  0
 17 18  1  0  0  0  0
 17 53  1  0  0  0  0
 17 54  1  0  0  0  0
 18 19  1  0  0  0  0
 18 55  1  0  0  0  0
 18 56  1  0  0  0  0
 19 20  1  0  0  0  0
 19 22  1  0  0  0  0
 19 57  1  0  0  0  0
 20 21  1  0  0  0  0
 20 58  1  0  0  0  0
 20 59  1  0  0  0  0
 21 60  1  0  0  0  0
 21 61  1  0  0  0  0
 22 23  1  0  0  0  0
 22 62  1  0  0  0  0
 22 63  1  0  0  0  0
 23 24  2  0  0  0  0
 23 25  1  0  0  0  0
 26 27  1  0  0  0  0
 26 64  1  0  0  0  0
 26 65  1  0  0  0  0
 27 28  2  0  0  0  0
 27 29  1  0  0  0  0
 30 31  2  0  0  0  0
 31 32  1  0  0  0  0
 31 33  1  0  0  0  0
 32 66  1  0  0  0  0
 32 67  1  0  0  0  0
 32 68  1  0  0  0  0
 33 69  1  0  0  0  0
 33 70  1  0  0  0  0
 33 71  1  0  0  0  0
M  CHG  1   5   1
M  END
$$$$
