
  --CCDC--092525    3D                              

 87103  0  0  0  0  0  0  0  0999 V2000
   -0.1604    0.1624   -0.1535 H      0
   -1.9217    0.3671   -0.0952 Ru     0
   -1.3132    2.1653    1.4363 Cl     0
    0.5745    1.7714   -0.0397 Ru     0
   -1.1642    2.0348   -1.8084 P      3
   -0.4667    1.3400   -3.3447 C      0
   -0.7292    1.9232   -4.5809 C      0
   -0.1661    1.4189   -5.7415 C      0
    0.5514    0.2448   -5.7146 C      0
    0.7663   -0.3896   -4.5118 C      0
    0.2905    0.1662   -3.3320 C      0
   -1.8385    3.7217   -1.7999 C      0
   -1.5890    4.5803   -2.8651 C      0
   -2.2813    5.7724   -2.9864 C      0
   -3.0763    6.2192   -1.9540 C      0
   -3.1599    5.4804   -0.7965 C      0
   -2.5764    4.2295   -0.7321 C      0
    2.1814    1.4692   -1.2660 C      0
    3.6567    1.5245   -1.5867 C      0
    2.3052    0.7697    0.1111 C      0
    2.6064   -0.7067    0.2187 C      0
    1.9828    1.5580    1.3928 C      0
    1.9525    0.8510    2.7289 C      0
    1.4479    3.0042    1.2934 C      0
    0.8865    3.6808    2.5311 C      0
    1.1999    3.6653   -0.0807 C      0
    0.4614    4.9841   -0.0978 C      0
    1.5948    2.9140   -1.3824 C      0
    2.6268    3.9356   -1.8075 C      0
   -2.9965   -0.3735   -1.5931 C      0
   -2.9682   -0.2045   -3.0961 C      0
   -2.1792   -1.4842   -0.8813 C      0
   -3.0639   -2.5758   -1.4692 C      0
   -2.0369   -1.5052    0.6849 C      0
   -2.6694   -2.8188    1.1023 C      0
   -2.8110   -0.4382    1.5349 C      0
   -3.9070   -0.9467    2.4467 C      0
   -3.7136    0.6210    0.7918 C      0
   -5.2366    0.7894    0.8625 C      0
   -3.7608    0.6755   -0.7641 C      0
   -4.3924    1.8409   -1.4997 C      0
   -1.3925    2.7736   -4.6531 H      0
   -0.2989    1.9478   -6.6783 H      0
    0.9439   -0.1776   -6.6364 H      0
    1.3135   -1.3255   -4.4908 H      0
    0.5060   -0.3292   -2.3910 H      0
   -0.8575    4.3121   -3.6170 H      0
   -2.1960    6.3585   -3.8954 H      0
   -3.6248    7.1506   -2.0469 H      0
   -3.7057    5.8656    0.0586 H      0
   -2.7503    3.6294    0.1477 H      0
    4.1012    0.5368   -1.5060 H      0
    4.1884    2.1917   -0.9128 H      0
    3.8123    1.8568   -2.6100 H      0
    3.2198   -1.0323   -0.6193 H      0
    3.1604   -0.9096    1.1337 H      0
    1.6970   -1.3037    0.2322 H      0
    1.0001    0.3578    2.9092 H      0
    2.1186    1.5639    3.5350 H      0
    2.7397    0.1036    2.7856 H      0
    0.6333    2.9646    3.3099 H      0
   -0.0028    4.2664    2.3086 H      0
    1.6291    4.3613    2.9412 H      0
    0.1873    5.2760   -1.1087 H      0
    1.1111    5.7578    0.3046 H      0
   -0.4382    4.9550    0.5132 H      0
    3.0752    3.6780   -2.7659 H      0
    3.4149    4.0210   -1.0623 H      0
    2.1678    4.9103   -1.9436 H      0
   -3.8585   -0.6619   -3.5210 H      0
   -2.1015   -0.7025   -3.5229 H      0
   -2.9508    0.8368   -3.3995 H      0
   -3.1329   -2.5066   -2.5511 H      0
   -4.0736   -2.5177   -1.0644 H      0
   -2.6766   -3.5716   -1.2798 H      0
   -2.1633   -3.6451    0.6063 H      0
   -3.7385   -2.8673    0.8987 H      0
   -2.5103   -2.9974    2.1619 H      0
   -4.7020   -1.4410    1.8906 H      0
   -4.3257   -0.1356    3.0342 H      0
   -3.4959   -1.6457    3.1711 H      0
   -5.7272    0.1419    0.1360 H      0
   -5.5646    1.8076    0.6828 H      0
   -5.6589    0.5524    1.8349 H      0
   -5.3481    1.5307   -1.9138 H      0
   -3.7747    2.2129   -2.3120 H      0
   -4.5904    2.6652   -0.8193 H      0
  1  2  1
  2  3  1
  3  4  1
  1  4  1
  2  4  1
  4  5  1
  2  5  1
  5  6  1
  6  7  4
  7  8  4
  8  9  4
  9 10  4
 10 11  4
  6 11  4
  5 12  1
 12 13  4
 13 14  4
 14 15  4
 15 16  4
 16 17  4
 12 17  4
  4 18  1
 18 19  1
 18 20  4
  4 20  1
 20 21  1
 20 22  4
  4 22  1
 22 23  1
 22 24  4
  4 24  1
 24 25  1
 24 26  4
  4 26  1
 26 27  1
 26 28  4
  4 28  1
 18 28  4
 28 29  1
  2 30  1
 30 31  1
 30 32  4
  2 32  1
 32 33  1
 32 34  4
  2 34  1
 34 35  1
 34 36  4
  2 36  1
 36 37  1
 36 38  4
  2 38  1
 38 39  1
 38 40  4
  2 40  1
 30 40  4
 40 41  1
  7 42  1
  8 43  1
  9 44  1
 10 45  1
 11 46  1
 13 47  1
 14 48  1
 15 49  1
 16 50  1
 17 51  1
 19 52  1
 19 53  1
 19 54  1
 21 55  1
 21 56  1
 21 57  1
 23 58  1
 23 59  1
 23 60  1
 25 61  1
 25 62  1
 25 63  1
 27 64  1
 27 65  1
 27 66  1
 29 67  1
 29 68  1
 29 69  1
 31 70  1
 31 71  1
 31 72  1
 33 73  1
 33 74  1
 33 75  1
 35 76  1
 35 77  1
 35 78  1
 37 79  1
 37 80  1
 37 81  1
 39 82  1
 39 83  1
 39 84  1
 41 85  1
 41 86  1
 41 87  1
M  CHG  1   5   1
M  END
$$$$
