
 OpenBabel09252515143D

 87103  0  0  0  0  0  0  0  0999 V2000
    0.8180    1.0620   -0.2230 H   0  0  0  0  0  0  0  0  0  0  0  0
    1.8030   -0.0000    0.2970 Ru  0  0  0  0  0  0  0  0  0  0  0  0
    0.8190   -1.0620   -0.2240 Cl  0  0  0  0  0  2  0  0  0  0  0  0
   -0.2760   -0.0000   -0.0710 Ru  0  0  0  0  0  0  0  0  0  0  0  0
    0.1372    1.8063    0.8995 P   0  3  0  0  0  0  0  0  0  0  0  0
    0.4149    2.3404    2.6277 C   0  0  0  0  0  0  0  0  0  0  0  0
   -0.6406    2.2991    3.5236 C   0  0  0  0  0  0  0  0  0  0  0  0
   -0.4429    3.0910    4.6794 C   0  0  0  0  0  0  0  0  0  0  0  0
    0.7295    3.5430    5.0861 C   0  0  0  0  0  0  0  0  0  0  0  0
    1.7490    3.4938    4.1764 C   0  0  0  0  0  0  0  0  0  0  0  0
    1.5911    2.8516    2.9720 C   0  0  0  0  0  0  0  0  0  0  0  0
    0.3542    3.2353   -0.2229 C   0  0  0  0  0  0  0  0  0  0  0  0
    0.7550    4.4836    0.2238 C   0  0  0  0  0  0  0  0  0  0  0  0
    0.6686    5.4988   -0.7580 C   0  0  0  0  0  0  0  0  0  0  0  0
    0.5772    5.2787   -2.0569 C   0  0  0  0  0  0  0  0  0  0  0  0
    0.2446    4.0079   -2.4364 C   0  0  0  0  0  0  0  0  0  0  0  0
    0.1808    2.9895   -1.5163 C   0  0  0  0  0  0  0  0  0  0  0  0
   -1.4770   -0.0000    0.8690 C   0  0  0  0  0  0  0  0  0  0  0  0
   -2.0468    0.0000    2.2782 C   0  0  0  0  0  0  0  0  0  0  0  0
   -1.6880    0.0000   -0.6480 C   0  0  0  0  0  0  0  0  0  0  0  0
   -2.6206    0.0000   -1.8483 C   0  0  0  0  0  0  0  0  0  0  0  0
    1.6639    2.6426    3.7093 C   0  0  0  0  0  0  0  0  0  0  0  0
    0.8076    2.4231    4.9458 C   0  0  0  0  0  0  0  0  0  0  0  0
    1.2396    2.0490    2.3759 C   0  0  0  0  0  0  0  0  0  0  0  0
    2.0958    2.2685    1.1394 C   0  0  0  0  0  0  0  0  0  0  0  0
    0.0934    1.3213    2.2892 C   0  0  0  0  0  0  0  0  0  0  0  0
   -0.7628    1.1018    3.5257 C   0  0  0  0  0  0  0  0  0  0  0  0
   -0.3309    0.7277    0.9557 C   0  0  0  0  0  0  0  0  0  0  0  0
    0.5254    0.9472   -0.2808 C   0  0  0  0  0  0  0  0  0  0  0  0
    0.5686   -0.6826    2.0113 C   0  0  0  0  0  0  0  0  0  0  0  0
    0.2495    0.1585    0.7860 C   0  0  0  0  0  0  0  0  0  0  0  0
    1.1287   -0.6256    3.3598 C   0  0  0  0  0  0  0  0  0  0  0  0
    2.5123   -0.0323    3.5690 C   0  0  0  0  0  0  0  0  0  0  0  0
    0.4587   -1.0774    4.3926 C   0  0  0  0  0  0  0  0  0  0  0  0
    1.0391   -1.0193    5.7963 C   0  0  0  0  0  0  0  0  0  0  0  0
   -1.0375   -1.7109    4.1105 C   0  0  0  0  0  0  0  0  0  0  0  0
   -1.8939   -2.2597    5.2400 C   0  0  0  0  0  0  0  0  0  0  0  0
   -1.5346   -1.7214    2.6299 C   0  0  0  0  0  0  0  0  0  0  0  0
   -2.8991   -2.2867    2.2707 C   0  0  0  0  0  0  0  0  0  0  0  0
   -0.7487   -1.2323    1.7073 C   0  0  0  0  0  0  0  0  0  0  0  0
   -1.2245   -1.2360    0.2636 C   0  0  0  0  0  0  0  0  0  0  0  0
   -1.5252    1.7207    3.3569 H   0  0  0  0  0  0  0  0  0  0  0  0
   -1.3031    3.3412    5.2646 H   0  0  0  0  0  0  0  0  0  0  0  0
    0.8737    3.9269    6.0743 H   0  0  0  0  0  0  0  0  0  0  0  0
    2.6833    3.9623    4.4056 H   0  0  0  0  0  0  0  0  0  0  0  0
    2.4234    2.7626    2.3055 H   0  0  0  0  0  0  0  0  0  0  0  0
    1.0987    4.6639    1.2209 H   0  0  0  0  0  0  0  0  0  0  0  0
    0.6779    6.5156   -0.4249 H   0  0  0  0  0  0  0  0  0  0  0  0
    0.7539    6.0531   -2.7738 H   0  0  0  0  0  0  0  0  0  0  0  0
    0.0309    3.8036   -3.4648 H   0  0  0  0  0  0  0  0  0  0  0  0
   -0.0104    1.9893   -1.8449 H   0  0  0  0  0  0  0  0  0  0  0  0
   -2.6481    0.8736    2.4197 H   0  0  0  0  0  0  0  0  0  0  0  0
   -2.6481   -0.8737    2.4197 H   0  0  0  0  0  0  0  0  0  0  0  0
   -1.2453    0.0000    2.9870 H   0  0  0  0  0  0  0  0  0  0  0  0
   -3.2377   -0.8736   -1.8205 H   0  0  0  0  0  0  0  0  0  0  0  0
   -3.2377    0.8737   -1.8205 H   0  0  0  0  0  0  0  0  0  0  0  0
   -2.0428    0.0000   -2.7489 H   0  0  0  0  0  0  0  0  0  0  0  0
   -0.1683    2.8297    4.7807 H   0  0  0  0  0  0  0  0  0  0  0  0
    0.7283    1.3744    5.1432 H   0  0  0  0  0  0  0  0  0  0  0  0
    1.2599    2.9106    5.7841 H   0  0  0  0  0  0  0  0  0  0  0  0
    2.4184    1.3229    0.7564 H   0  0  0  0  0  0  0  0  0  0  0  0
    1.5218    2.7781    0.3939 H   0  0  0  0  0  0  0  0  0  0  0  0
    2.9500    2.8590    1.3973 H   0  0  0  0  0  0  0  0  0  0  0  0
   -1.7387    1.5084    3.3605 H   0  0  0  0  0  0  0  0  0  0  0  0
   -0.8421    0.0531    3.7231 H   0  0  0  0  0  0  0  0  0  0  0  0
   -0.3105    1.5893    4.3639 H   0  0  0  0  0  0  0  0  0  0  0  0
    0.8480    0.0016   -0.6637 H   0  0  0  0  0  0  0  0  0  0  0  0
   -0.0486    1.4569   -1.0263 H   0  0  0  0  0  0  0  0  0  0  0  0
    1.3796    1.5377   -0.0229 H   0  0  0  0  0  0  0  0  0  0  0  0
    0.8649    1.0338    0.7841 H   0  0  0  0  0  0  0  0  0  0  0  0
    0.4395   -0.4131   -0.0983 H   0  0  0  0  0  0  0  0  0  0  0  0
   -0.7807    0.4468    0.8098 H   0  0  0  0  0  0  0  0  0  0  0  0
    2.4441    0.8081    4.2278 H   0  0  0  0  0  0  0  0  0  0  0  0
    3.1560   -0.7711    3.9988 H   0  0  0  0  0  0  0  0  0  0  0  0
    2.9109    0.2839    2.6277 H   0  0  0  0  0  0  0  0  0  0  0  0
    1.9497   -1.5803    5.8292 H   0  0  0  0  0  0  0  0  0  0  0  0
    1.2378   -0.0011    6.0582 H   0  0  0  0  0  0  0  0  0  0  0  0
    0.3384   -1.4357    6.4895 H   0  0  0  0  0  0  0  0  0  0  0  0
   -1.3764   -3.0626    5.7223 H   0  0  0  0  0  0  0  0  0  0  0  0
   -2.0881   -1.4831    5.9500 H   0  0  0  0  0  0  0  0  0  0  0  0
   -2.8199   -2.6198    4.8430 H   0  0  0  0  0  0  0  0  0  0  0  0
   -2.9454   -3.3165    2.5578 H   0  0  0  0  0  0  0  0  0  0  0  0
   -3.6594   -1.7382    2.7864 H   0  0  0  0  0  0  0  0  0  0  0  0
   -3.0531   -2.2035    1.2151 H   0  0  0  0  0  0  0  0  0  0  0  0
   -1.4128   -2.2424   -0.0472 H   0  0  0  0  0  0  0  0  0  0  0  0
   -2.1249   -0.6636    0.1833 H   0  0  0  0  0  0  0  0  0  0  0  0
   -0.4707   -0.8048   -0.3614 H   0  0  0  0  0  0  0  0  0  0  0  0
  1  2  1  0  0  0  0
  1  4  1  0  0  0  0
  2  3  1  0  0  0  0
  2  4  1  0  0  0  0
  2  5  1  0  0  0  0
  2 30  1  0  0  0  0
  2 32  1  0  0  0  0
  2 34  1  0  0  0  0
  2 36  1  0  0  0  0
  2 38  1  0  0  0  0
  2 40  1  0  0  0  0
  3  4  1  0  0  0  0
  4  5  1  0  0  0  0
  4 18  1  0  0  0  0
  4 20  1  0  0  0  0
  4 22  1  0  0  0  0
  4 24  1  0  0  0  0
  4 26  1  0  0  0  0
  4 28  1  0  0  0  0
  5  6  1  0  0  0  0
  5 12  1  0  0  0  0
  6  7  1  0  0  0  0
  6 11  2  0  0  0  0
  7  8  2  0  0  0  0
  7 42  1  0  0  0  0
  8  9  1  0  0  0  0
  8 43  1  0  0  0  0
  9 10  2  0  0  0  0
  9 44  1  0  0  0  0
 10 11  1  0  0  0  0
 10 45  1  0  0  0  0
 11 46  1  0  0  0  0
 12 13  1  0  0  0  0
 12 17  2  0  0  0  0
 13 14  2  0  0  0  0
 13 47  1  0  0  0  0
 14 15  1  0  0  0  0
 14 48  1  0  0  0  0
 15 16  2  0  0  0  0
 15 49  1  0  0  0  0
 16 17  1  0  0  0  0
 16 50  1  0  0  0  0
 17 51  1  0  0  0  0
 18 19  1  0  0  0  0
 18 20  1  0  0  0  0
 18 28  2  0  0  0  0
 19 52  1  0  0  0  0
 19 53  1  0  0  0  0
 19 54  1  0  0  0  0
 20 21  1  0  0  0  0
 20 22  2  0  0  0  0
 21 55  1  0  0  0  0
 21 56  1  0  0  0  0
 21 57  1  0  0  0  0
 22 23  1  0  0  0  0
 22 24  1  0  0  0  0
 23 58  1  0  0  0  0
 23 59  1  0  0  0  0
 23 60  1  0  0  0  0
 24 25  1  0  0  0  0
 24 26  2  0  0  0  0
 25 61  1  0  0  0  0
 25 62  1  0  0  0  0
 25 63  1  0  0  0  0
 26 27  1  0  0  0  0
 26 28  1  0  0  0  0
 27 64  1  0  0  0  0
 27 65  1  0  0  0  0
 27 66  1  0  0  0  0
 28 29  1  0  0  0  0
 29 67  1  0  0  0  0
 29 68  1  0  0  0  0
 29 69  1  0  0  0  0
 30 31  1  0  0  0  0
 30 32  1  0  0  0  0
 30 40  2  0  0  0  0
 31 70  1  0  0  0  0
 31 71  1  0  0  0  0
 31 72  1  0  0  0  0
 32 33  1  0  0  0  0
 32 34  2  0  0  0  0
 33 73  1  0  0  0  0
 33 74  1  0  0  0  0
 33 75  1  0  0  0  0
 34 35  1  0  0  0  0
 34 36  1  0  0  0  0
 35 76  1  0  0  0  0
 35 77  1  0  0  0  0
 35 78  1  0  0  0  0
 36 37  1  0  0  0  0
 36 38  2  0  0  0  0
 37 79  1  0  0  0  0
 37 80  1  0  0  0  0
 37 81  1  0  0  0  0
 38 39  1  0  0  0  0
 38 40  1  0  0  0  0
 39 82  1  0  0  0  0
 39 83  1  0  0  0  0
 39 84  1  0  0  0  0
 40 41  1  0  0  0  0
 41 85  1  0  0  0  0
 41 86  1  0  0  0  0
 41 87  1  0  0  0  0
M  CHG  1   5   1
M  END
$$$$
