
 OpenBabel09252513593D

 32 34  0  0  0  0  0  0  0  0999 V2000
    1.0448    0.0817   -0.0364 C   0  0  0  0  0  0  0  0  0  0  0  0
    0.5381    0.5869   -1.3775 C   0  0  0  0  0  0  0  0  0  0  0  0
    1.0447   -0.3218   -2.4856 C   0  0  0  0  0  0  0  0  0  0  0  0
    0.1607   -0.9775   -3.2851 C   0  0  0  0  0  0  0  0  0  0  0  0
   -0.9819    0.5869   -1.3775 C   0  0  0  0  0  0  0  0  0  0  0  0
   -1.4719    1.4658   -0.3058 N   0  0  0  0  0  0  0  0  0  0  0  0
   -1.1649    1.2250    0.9037 N   0  0  0  0  0  0  0  0  0  0  0  0
   -0.4342    0.2244    1.1867 N   0  0  0  0  0  2  0  0  0  0  0  0
   -1.4886    1.0922   -2.7185 C   0  0  0  0  0  0  0  0  0  0  0  0
   -1.9530    0.3594   -3.7167 C   0  0  0  0  0  0  0  0  0  0  0  0
   -2.1765    1.3019   -4.8436 C   0  0  0  0  0  0  0  0  0  0  0  0
   -1.8261    2.4948   -4.3927 C   0  0  0  0  0  0  0  0  0  0  0  0
   -1.8862    3.7925   -5.1819 C   0  0  0  0  0  0  0  0  0  0  0  0
   -1.4086    2.3703   -3.1225 Fe  0  0  0  0  0  0  0  0  0  0  0  0
   -1.8470    3.3683   -1.3509 C   0  0  0  0  0  0  0  0  0  0  0  0
   -2.1037    3.9527   -0.3135 O   0  0  0  0  0  0  0  0  0  0  0  0
   -1.0571    0.4188   -3.7505 C   0  0  0  0  0  0  0  0  0  0  0  0
   -0.8512   -0.7240   -4.1182 O   0  0  0  0  0  0  0  0  0  0  0  0
    0.0743    1.4735   -4.2727 C   0  0  0  0  0  0  0  0  0  0  0  0
    0.9427    0.9483   -4.9463 O   0  0  0  0  0  0  0  0  0  0  0  0
    0.6881   -0.9137    0.1276 H   0  0  0  0  0  0  0  0  0  0  0  0
    0.6881    0.7214    0.7436 H   0  0  0  0  0  0  0  0  0  0  0  0
    2.1148    0.0817   -0.0364 H   0  0  0  0  0  0  0  0  0  0  0  0
    0.8948    1.5823   -1.5415 H   0  0  0  0  0  0  0  0  0  0  0  0
    2.0967   -0.4458   -2.6368 H   0  0  0  0  0  0  0  0  0  0  0  0
    0.5174   -1.6172   -4.0651 H   0  0  0  0  0  0  0  0  0  0  0  0
   -0.8913   -0.8535   -3.1339 H   0  0  0  0  0  0  0  0  0  0  0  0
   -1.3386   -0.4085   -1.2135 H   0  0  0  0  0  0  0  0  0  0  0  0
   -1.5049    1.8348    1.6473 H   0  0  0  0  0  0  0  0  0  0  0  0
   -2.5378    4.4815   -4.6864 H   0  0  0  0  0  0  0  0  0  0  0  0
   -0.9053    4.2147   -5.2492 H   0  0  0  0  0  0  0  0  0  0  0  0
   -2.2576    3.5948   -6.1657 H   0  0  0  0  0  0  0  0  0  0  0  0
  1  2  1  0  0  0  0
  1 21  1  0  0  0  0
  1 22  1  0  0  0  0
  1 23  1  0  0  0  0
  2  3  1  0  0  0  0
  2  5  1  0  0  0  0
  2 24  1  0  0  0  0
  3  4  2  0  0  0  0
  3 25  1  0  0  0  0
  4 26  1  0  0  0  0
  4 27  1  0  0  0  0
  5  6  1  0  0  0  0
  5  9  1  0  0  0  0
  5 28  1  0  0  0  0
  6  7  2  0  0  0  0
  7  8  2  0  0  0  0
  7 29  1  0  0  0  0
  9 10  2  0  0  0  0
  9 14  1  0  0  0  0
 10 11  1  0  0  0  0
 10 14  1  0  0  0  0
 11 12  2  0  0  0  0
 11 14  1  0  0  0  0
 12 13  1  0  0  0  0
 12 14  1  0  0  0  0
 13 30  1  0  0  0  0
 13 31  1  0  0  0  0
 13 32  1  0  0  0  0
 14 15  1  0  0  0  0
 14 17  1  0  0  0  0
 14 19  1  0  0  0  0
 15 16  3  0  0  0  0
 17 18  3  0  0  0  0
 19 20  3  0  0  0  0
M  END
$$$$
