
 OpenBabel09252513133D

 87103  0  0  1  0  0  0  0  0999 V2000
    0.9468    0.0847    0.0012 H   0  0  0  0  0  0  0  0  0  0  0  0
    2.0168    0.0847    0.0012 C   0  0  0  0  0  3  0  0  0  0  0  0
    2.5291   -1.2983   -0.4080 C   0  0  0  0  0  3  0  0  0  0  0  0
    2.1399   -2.0357    0.2626 H   0  0  0  0  0  0  0  0  0  0  0  0
    2.0988   -1.5904   -1.7392 C   0  0  0  0  0  3  0  0  0  0  0  0
    2.4391   -2.5722   -1.9945 H   0  0  0  0  0  0  0  0  0  0  0  0
    2.5862   -0.6764   -2.7232 C   0  0  0  0  0  3  0  0  0  0  0  0
    4.4162   -0.6806   -2.7067 P   0  3  0  0  0  0  0  0  0  0  0  0
    5.0257   -2.3646   -3.0832 C   0  0  0  0  0  3  0  0  0  0  0  0
    3.9430   -2.6549   -2.0413 C   0  0  0  0  0  3  0  0  0  0  0  0
    3.9129   -1.8591   -1.3267 H   0  0  0  0  0  0  0  0  0  0  0  0
    2.6741   -2.7608   -2.6904 C   0  0  0  0  0  3  0  0  0  0  0  0
    1.9276   -2.9319   -1.9431 H   0  0  0  0  0  0  0  0  0  0  0  0
    2.5970   -3.8153   -3.6514 C   0  0  0  0  0  3  0  0  0  0  0  0
    2.8026   -4.7499   -3.1728 H   0  0  0  0  0  0  0  0  0  0  0  0
    3.6253   -3.5718   -4.7585 C   0  0  0  0  0  3  0  0  0  0  0  0
    3.5983   -4.3821   -5.4568 H   0  0  0  0  0  0  0  0  0  0  0  0
    5.0217   -3.4783   -4.1355 C   0  0  0  0  0  3  0  0  0  0  0  0
    5.2710   -4.4101   -3.6724 H   0  0  0  0  0  0  0  0  0  0  0  0
    5.2790    0.9379   -4.4492 Ru  0  0  0  0  0  0  0  0  0  0  0  0
    6.9342    1.5502   -4.5849 H   0  0  0  0  0  0  0  0  0  0  0  0
    8.7417    1.9334   -7.8582 Ru  0  0  0  0  0  0  0  0  0  0  0  0
    7.0104    1.4357   -6.1537 Cl  0  0  0  0  0  2  0  0  0  0  0  0
   10.5997    2.7475   -6.4055 C   0  0  2  0  0  0  0  0  0  0  0  0
   11.2463    3.3205   -5.1549 C   0  0  0  0  0  0  0  0  0  0  0  0
   12.2845    3.0618   -5.1397 H   0  0  0  0  0  0  0  0  0  0  0  0
   11.1441    4.3856   -5.1566 H   0  0  0  0  0  0  0  0  0  0  0  0
   10.7656    2.9174   -4.2881 H   0  0  0  0  0  0  0  0  0  0  0  0
    9.7599    1.5249   -6.7885 C   0  0  2  0  0  0  0  0  0  0  0  0
   10.6667    0.4358   -7.3380 C   0  0  0  0  0  0  0  0  0  0  0  0
   11.1787    0.8011   -8.2037 H   0  0  0  0  0  0  0  0  0  0  0  0
   11.3815    0.1569   -6.5922 H   0  0  0  0  0  0  0  0  0  0  0  0
   10.0784   -0.4171   -7.6050 H   0  0  0  0  0  0  0  0  0  0  0  0
   10.3924    1.4699   -9.6650 C   0  0  2  0  0  0  0  0  0  0  0  0
   11.3988    1.0072   -8.6240 C   0  0  0  0  0  0  0  0  0  0  0  0
   11.9875    1.8406   -8.3019 H   0  0  0  0  0  0  0  0  0  0  0  0
   10.8794    0.5921   -7.7857 H   0  0  0  0  0  0  0  0  0  0  0  0
   12.0378    0.2631   -9.0518 H   0  0  0  0  0  0  0  0  0  0  0  0
    9.4846    2.5268   -9.0574 C   0  0  2  0  0  0  0  0  0  0  0  0
    8.4785    2.9892  -10.0987 C   0  0  0  0  0  0  0  0  0  0  0  0
    7.8391    3.7332   -9.6712 H   0  0  0  0  0  0  0  0  0  0  0  0
    8.9980    3.4044  -10.9370 H   0  0  0  0  0  0  0  0  0  0  0  0
    7.8900    2.1557  -10.4210 H   0  0  0  0  0  0  0  0  0  0  0  0
   10.2707    3.6401   -8.6269 C   0  0  2  0  0  0  0  0  0  0  0  0
   10.6544    5.0040   -9.1773 C   0  0  0  0  0  0  0  0  0  0  0  0
   11.1795    4.8808  -10.1015 H   0  0  0  0  0  0  0  0  0  0  0  0
    9.7701    5.5830   -9.3439 H   0  0  0  0  0  0  0  0  0  0  0  0
   11.2836    5.5082   -8.4740 H   0  0  0  0  0  0  0  0  0  0  0  0
   11.2704    3.3092   -7.6613 C   0  0  1  0  0  0  0  0  0  0  0  0
   12.7237    3.7510   -7.7164 C   0  0  0  0  0  0  0  0  0  0  0  0
   13.1746    3.3828   -8.6142 H   0  0  0  0  0  0  0  0  0  0  0  0
   12.7723    4.8198   -7.7053 H   0  0  0  0  0  0  0  0  0  0  0  0
   13.2473    3.3613   -6.8685 H   0  0  0  0  0  0  0  0  0  0  0  0
    4.6658    3.3183   -4.0217 C   0  0  2  0  0  0  0  0  0  0  0  0
    4.8507    4.7382   -3.5119 C   0  0  0  0  0  0  0  0  0  0  0  0
    4.1962    5.3964   -4.0442 H   0  0  0  0  0  0  0  0  0  0  0  0
    4.6213    4.7750   -2.4674 H   0  0  0  0  0  0  0  0  0  0  0  0
    5.8649    5.0430   -3.6652 H   0  0  0  0  0  0  0  0  0  0  0  0
    5.3608    2.3656   -4.9994 C   0  0  2  0  0  0  0  0  0  0  0  0
    4.6701    2.4307   -6.3519 C   0  0  0  0  0  0  0  0  0  0  0  0
    3.6452    2.1433   -6.2432 H   0  0  0  0  0  0  0  0  0  0  0  0
    4.7221    3.4298   -6.7312 H   0  0  0  0  0  0  0  0  0  0  0  0
    5.1569    1.7647   -7.0334 H   0  0  0  0  0  0  0  0  0  0  0  0
    3.0726    0.5950   -5.5532 C   0  0  2  0  0  0  0  0  0  0  0  0
    3.1597    1.9881   -6.1551 C   0  0  0  0  0  0  0  0  0  0  0  0
    2.7137    2.6941   -5.4862 H   0  0  0  0  0  0  0  0  0  0  0  0
    4.1863    2.2451   -6.3124 H   0  0  0  0  0  0  0  0  0  0  0  0
    2.6402    2.0056   -7.0904 H   0  0  0  0  0  0  0  0  0  0  0  0
    3.8105    0.5701   -4.2246 C   0  0  2  0  0  0  0  0  0  0  0  0
    3.7233   -0.8231   -3.6231 C   0  0  0  0  0  0  0  0  0  0  0  0
    4.2428   -0.8409   -2.6878 H   0  0  0  0  0  0  0  0  0  0  0  0
    2.6966   -1.0800   -3.4657 H   0  0  0  0  0  0  0  0  0  0  0  0
    4.1690   -1.5290   -4.2922 H   0  0  0  0  0  0  0  0  0  0  0  0
    3.2151    1.5132   -3.3309 C   0  0  2  0  0  0  0  0  0  0  0  0
    2.2024    1.4788   -2.1980 C   0  0  0  0  0  0  0  0  0  0  0  0
    1.2684    1.1080   -2.5656 H   0  0  0  0  0  0  0  0  0  0  0  0
    2.5595    0.8371   -1.4197 H   0  0  0  0  0  0  0  0  0  0  0  0
    2.0663    2.4671   -1.8111 H   0  0  0  0  0  0  0  0  0  0  0  0
    3.2210    2.8579   -3.8136 C   0  0  2  0  0  0  0  0  0  0  0  0
    2.0283    3.8001   -3.8004 C   0  0  0  0  0  0  0  0  0  0  0  0
    1.2333    3.3772   -4.3783 H   0  0  0  0  0  0  0  0  0  0  0  0
    1.6990    3.9444   -2.7926 H   0  0  0  0  0  0  0  0  0  0  0  0
    2.3131    4.7419   -4.2209 H   0  0  0  0  0  0  0  0  0  0  0  0
    2.0763    0.7317   -2.4077 C   0  0  0  0  0  3  0  0  0  0  0  0
    2.4746    1.4246   -3.1192 H   0  0  0  0  0  0  0  0  0  0  0  0
    2.5296    1.1263   -0.9987 C   0  0  0  0  0  3  0  0  0  0  0  0
    3.5984    1.1621   -0.9627 H   0  0  0  0  0  0  0  0  0  0  0  0
  1  2  1  0  0  0  0
  2  3  1  0  0  0  0
  2 86  1  0  0  0  0
  3  4  1  0  0  0  0
  3  5  1  0  0  0  0
  5  6  1  0  0  0  0
  5  7  1  0  0  0  0
  7  8  1  0  0  0  0
  7 84  1  0  0  0  0
  8  9  1  0  0  0  0
  8 20  1  0  0  0  0
  8 22  1  0  0  0  0
  9 10  1  0  0  0  0
  9 18  1  0  0  0  0
 10 11  1  0  0  0  0
 10 12  1  0  0  0  0
 12 13  1  0  0  0  0
 12 14  1  0  0  0  0
 14 15  1  0  0  0  0
 14 16  1  0  0  0  0
 16 17  1  0  0  0  0
 16 18  1  0  0  0  0
 18 19  1  0  0  0  0
 20 21  1  0  0  0  0
 20 22  1  0  0  0  0
 20 23  1  0  0  0  0
 20 54  1  0  0  0  0
 20 59  1  0  0  0  0
 20 64  1  0  0  0  0
 20 69  1  0  0  0  0
 20 74  1  0  0  0  0
 20 79  1  0  0  0  0
 21 22  1  0  0  0  0
 22 23  1  0  0  0  0
 22 24  1  0  0  0  0
 22 29  1  0  0  0  0
 22 34  1  0  0  0  0
 22 39  1  0  0  0  0
 22 44  1  0  0  0  0
 22 49  1  0  0  0  0
 24 25  1  6  0  0  0
 24 29  1  0  0  0  0
 24 49  1  0  0  0  0
 25 26  1  0  0  0  0
 25 27  1  0  0  0  0
 25 28  1  0  0  0  0
 29 30  1  6  0  0  0
 29 34  1  0  0  0  0
 30 31  1  0  0  0  0
 30 32  1  0  0  0  0
 30 33  1  0  0  0  0
 34 35  1  1  0  0  0
 34 39  1  0  0  0  0
 35 36  1  0  0  0  0
 35 37  1  0  0  0  0
 35 38  1  0  0  0  0
 39 40  1  1  0  0  0
 39 44  1  0  0  0  0
 40 41  1  0  0  0  0
 40 42  1  0  0  0  0
 40 43  1  0  0  0  0
 44 45  1  1  0  0  0
 44 49  1  0  0  0  0
 45 46  1  0  0  0  0
 45 47  1  0  0  0  0
 45 48  1  0  0  0  0
 49 50  1  1  0  0  0
 50 51  1  0  0  0  0
 50 52  1  0  0  0  0
 50 53  1  0  0  0  0
 54 55  1  6  0  0  0
 54 59  1  0  0  0  0
 54 79  1  0  0  0  0
 55 56  1  0  0  0  0
 55 57  1  0  0  0  0
 55 58  1  0  0  0  0
 59 60  1  1  0  0  0
 59 64  1  0  0  0  0
 60 61  1  0  0  0  0
 60 62  1  0  0  0  0
 60 63  1  0  0  0  0
 64 65  1  1  0  0  0
 64 69  1  0  0  0  0
 65 66  1  0  0  0  0
 65 67  1  0  0  0  0
 65 68  1  0  0  0  0
 69 70  1  6  0  0  0
 69 74  1  0  0  0  0
 70 71  1  0  0  0  0
 70 72  1  0  0  0  0
 70 73  1  0  0  0  0
 74 75  1  6  0  0  0
 74 79  1  0  0  0  0
 75 76  1  0  0  0  0
 75 77  1  0  0  0  0
 75 78  1  0  0  0  0
 79 80  1  6  0  0  0
 80 81  1  0  0  0  0
 80 82  1  0  0  0  0
 80 83  1  0  0  0  0
 84 85  1  0  0  0  0
 84 86  1  0  0  0  0
 86 87  1  0  0  0  0
M  CHG  1   8   1
M  END
$$$$
