
 OpenBabel09252517373D

 26 26  0  0  0  0  0  0  0  0999 V2000
    1.0345   -0.0741   -0.2345 C   0  0  0  0  0  0  0  0  0  0  0  0
    0.4206   -1.4528   -0.0100 C   0  0  0  0  0  0  0  0  0  0  0  0
    1.0731   -2.2206    1.1332 C   0  0  0  0  0  0  0  0  0  0  0  0
   -1.0169   -1.4150    0.1369 O   0  0  0  0  0  0  0  0  0  0  0  0
   -1.5686   -0.6875    1.1354 C   0  0  0  0  0  0  0  0  0  0  0  0
   -0.9896    0.0044    1.9551 O   0  0  0  0  0  0  0  0  0  0  0  0
   -3.0467   -0.8039    1.0790 C   0  0  0  0  0  0  0  0  0  0  0  0
   -3.8160    0.2619    1.5680 C   0  0  0  0  0  0  0  0  0  0  0  0
   -5.2120    0.1882    1.5557 C   0  0  0  0  0  0  0  0  0  0  0  0
   -5.8377   -0.9657    1.0640 C   0  0  0  0  0  0  0  0  0  0  0  0
   -5.0760   -2.0393    0.5800 C   0  0  0  0  0  0  0  0  0  0  0  0
   -3.6795   -1.9545    0.5864 C   0  0  0  0  0  0  0  0  0  0  0  0
   -7.3041   -1.0541    1.0628 N   0  0  0  0  0  0  0  0  0  0  0  0
   -7.9411   -0.0642    1.4492 O   0  0  0  0  0  0  0  0  0  0  0  0
   -7.8162   -2.1138    0.6755 O   0  0  0  0  0  0  0  0  0  0  0  0
    1.0201    0.5371    0.6727 H   0  0  0  0  0  0  0  0  0  0  0  0
    0.4804    0.4744   -1.0030 H   0  0  0  0  0  0  0  0  0  0  0  0
    2.0788   -0.1633   -0.5510 H   0  0  0  0  0  0  0  0  0  0  0  0
    0.5881   -2.0293   -0.9277 H   0  0  0  0  0  0  0  0  0  0  0  0
    0.9540   -1.7050    2.0908 H   0  0  0  0  0  0  0  0  0  0  0  0
    0.6072   -3.2059    1.2427 H   0  0  0  0  0  0  0  0  0  0  0  0
    2.1434   -2.3592    0.9512 H   0  0  0  0  0  0  0  0  0  0  0  0
   -3.3272    1.1539    1.9583 H   0  0  0  0  0  0  0  0  0  0  0  0
   -5.7901    1.0290    1.9350 H   0  0  0  0  0  0  0  0  0  0  0  0
   -5.5501   -2.9435    0.2021 H   0  0  0  0  0  0  0  0  0  0  0  0
   -3.0935   -2.7951    0.2200 H   0  0  0  0  0  0  0  0  0  0  0  0
  1  2  1  0  0  0  0
  1 16  1  0  0  0  0
  1 17  1  0  0  0  0
  1 18  1  0  0  0  0
  2  3  1  0  0  0  0
  2  4  1  0  0  0  0
  2 19  1  0  0  0  0
  3 20  1  0  0  0  0
  3 21  1  0  0  0  0
  3 22  1  0  0  0  0
  4  5  1  0  0  0  0
  5  6  2  0  0  0  0
  5  7  1  0  0  0  0
  7  8  1  0  0  0  0
  7 12  2  0  0  0  0
  8  9  2  0  0  0  0
  8 23  1  0  0  0  0
  9 10  1  0  0  0  0
  9 24  1  0  0  0  0
 10 11  2  0  0  0  0
 10 13  1  0  0  0  0
 11 12  1  0  0  0  0
 11 25  1  0  0  0  0
 12 26  1  0  0  0  0
 13 14  2  0  0  0  0
 13 15  2  0  0  0  0
M  END
$$$$
