
  --CCDC--092525    3D                              

 34 33  0  0  0  0  0  0  0  0999 V2000
    0.0000    0.0000    0.0000 H      0
    0.5440    0.9422    0.0000 C      0
    0.7406    1.2201   -1.0334 H      0
    1.4993    0.7821    0.4955 H      0
   -0.2211    1.9801    0.6770 C      0
   -0.8282    2.8036    1.1822 N      0
   -2.2913    4.7882    2.4000 La     0
   -1.7429    6.2203   -0.4995 Br     0
   -2.1988    6.9972    4.8228 Br     0
    0.6800    6.1746    2.4862 Br     0
   -1.1535    3.2119    4.3450 N      0
   -0.6819    2.5578    5.1521 C      0
   -0.0985    1.6947    6.1697 C      0
   -0.8761    1.2025    6.7500 H      0
    0.5221    2.2698    6.8537 H      0
    0.5221    0.9261    5.7138 H      0
   -3.9837    3.2653    0.8576 N      0
   -4.6859    2.6334    0.2176 C      0
   -5.5742    1.7982   -0.5788 C      0
   -5.4041    1.9581   -1.6415 H      0
   -6.6156    2.0283   -0.3639 H      0
   -5.4085    0.7446   -0.3639 H      0
   -4.2351    6.6784    1.9404 N      0
   -5.0403    7.4633    1.7474 C      0
   -6.0766    8.4484    1.4702 C      0
   -6.2106    8.5758    0.3981 H      0
   -5.8141    9.4145    1.8962 H      0
   -7.0282    8.1374    1.8962 H      0
   -4.2824    3.7698    4.0002 N      0
   -5.1085    3.3471    4.6645 C      0
   -6.1521    2.7742    5.5031 C      0
   -6.1166    1.6871    5.4746 H      0
   -7.1364    3.0901    5.1638 H      0
   -6.0326    3.0901    6.5374 H      0
  1  2  1
  2  3  1
  2  4  1
  2  5  1
  5  6  3
  6  7  1
  7  8  1
  7  9  1
  7 10  1
  7 11  1
 11 12  3
 12 13  1
 13 14  1
 13 15  1
 13 16  1
  7 17  1
 17 18  3
 18 19  1
 19 20  1
 19 21  1
 19 22  1
  7 23  1
 23 24  3
 24 25  1
 25 26  1
 25 27  1
 25 28  1
  7 29  1
 29 30  3
 30 31  1
 31 32  1
 31 33  1
 31 34  1
M  END
$$$$
