
     RDKit          3D

 28 28  0  0  0  0  0  0  0  0999 V2000
   -0.3079    0.5261   -0.1368 C   0  0  0  0  0  0  0  0  0  0  0  0
   -1.7775    0.6892    0.0192 C   0  0  0  0  0  0  0  0  0  0  0  0
   -2.3641    1.8859   -0.2673 C   0  0  0  0  0  0  0  0  0  0  0  0
   -3.7596    2.1415   -0.1418 C   0  0  0  0  0  0  0  0  0  0  0  0
   -4.8923    2.3782   -0.0481 N   0  0  0  0  0  0  0  0  0  0  0  0
   -1.6045    3.0183   -0.7008 C   0  0  0  0  0  0  0  0  0  0  0  0
   -0.9745    3.9288   -1.0495 N   0  0  0  0  0  0  0  0  0  0  0  0
   -2.4821   -0.5890    0.4979 C   0  0  0  0  0  0  0  0  0  0  0  0
   -4.0006   -0.7030    0.5500 C   0  0  0  0  0  0  0  0  0  0  0  0
    0.4399   -0.5201    0.2589 C   0  0  0  0  0  0  0  0  0  0  0  0
    1.8955   -0.5984    0.0554 C   0  0  0  0  0  0  0  0  0  0  0  0
    2.7411    0.4987    0.2807 C   0  0  0  0  0  0  0  0  0  0  0  0
    4.1217    0.3762    0.1042 C   0  0  0  0  0  0  0  0  0  0  0  0
    4.6576   -0.8444   -0.2864 C   0  0  0  0  0  0  0  0  0  0  0  0
    5.9811   -0.9616   -0.4537 F   0  0  0  0  0  0  0  0  0  0  0  0
    3.8402   -1.9470   -0.4998 C   0  0  0  0  0  0  0  0  0  0  0  0
    2.4597   -1.8258   -0.3235 C   0  0  0  0  0  0  0  0  0  0  0  0
    0.2247    1.3370   -0.6355 H   0  0  0  0  0  0  0  0  0  0  0  0
   -2.1544   -1.4110   -0.1538 H   0  0  0  0  0  0  0  0  0  0  0  0
   -2.1171   -0.8157    1.5088 H   0  0  0  0  0  0  0  0  0  0  0  0
   -4.4545   -0.5063   -0.4258 H   0  0  0  0  0  0  0  0  0  0  0  0
   -4.4284   -0.0364    1.3042 H   0  0  0  0  0  0  0  0  0  0  0  0
   -4.2812   -1.7232    0.8360 H   0  0  0  0  0  0  0  0  0  0  0  0
    0.0093   -1.3890    0.7480 H   0  0  0  0  0  0  0  0  0  0  0  0
    2.3389    1.4560    0.6046 H   0  0  0  0  0  0  0  0  0  0  0  0
    4.7795    1.2227    0.2737 H   0  0  0  0  0  0  0  0  0  0  0  0
    4.2808   -2.8922   -0.8003 H   0  0  0  0  0  0  0  0  0  0  0  0
    1.8289   -2.6956   -0.4936 H   0  0  0  0  0  0  0  0  0  0  0  0
  1  2  1  0
  2  3  2  0
  3  4  1  0
  4  5  3  0
  3  6  1  0
  6  7  3  0
  2  8  1  0
  8  9  1  0
  1 10  2  0
 10 11  1  0
 11 12  2  0
 12 13  1  0
 13 14  2  0
 14 15  1  0
 14 16  1  0
 16 17  2  0
 17 11  1  0
  1 18  1  0
  8 19  1  0
  8 20  1  0
  9 21  1  0
  9 22  1  0
  9 23  1  0
 10 24  1  0
 12 25  1  0
 13 26  1  0
 16 27  1  0
 17 28  1  0
M  END
