
  --CCDC--092525    3D                              

 76 82  0  0  0  0  0  0  0  0999 V2000
   -6.1314   -6.8257   -0.5452 H      0
   -5.2230   -6.2622   -0.3594 C      0
   -4.3749   -5.9530   -1.3987 C      0
   -4.6114   -6.2832   -2.4048 H      0
   -3.2151   -5.2329   -1.1650 C      0
   -2.5319   -5.0616   -1.9856 H      0
   -2.8932   -4.7726    0.1140 C      0
   -1.4278   -3.7568    0.4632 P      0
   -0.1434   -4.1967    1.6657 C      0
   -0.2195   -5.4098    2.3522 C      0
   -1.0528   -6.0790    2.1647 H      0
    0.7540   -5.7723    3.2680 C      0
    0.6778   -6.7196    3.7914 H      0
    1.8189   -4.9348    3.5161 C      0
    2.5813   -5.2215    4.2328 H      0
    1.9122   -3.7316    2.8520 C      0
    2.7499   -3.0705    3.0486 H      0
    0.9420   -3.3600    1.9360 C      0
    1.0306   -2.4044    1.4319 H      0
   -0.3778   -4.7874   -0.5924 C      0
   -0.3460   -6.1827   -0.6741 C      0
   -1.0404   -6.7759   -0.0883 H      0
    0.5699   -6.8086   -1.5040 C      0
    0.5806   -7.8913   -1.5737 H      0
    1.4708   -6.0677   -2.2381 C      0
    2.1846   -6.5699   -2.8826 H      0
    1.4732   -4.6858   -2.1525 C      0
    2.1957   -4.1073   -2.7187 H      0
    0.5461   -4.0393   -1.3364 C      0
    0.4360   -2.5514   -1.0618 C      0
    1.4058   -1.6901   -1.1080 N      0
    0.7549   -0.5002   -0.7399 C      0
    0.8863    0.7264   -1.3906 C      0
    1.6781    0.8839   -2.1155 H      0
   -0.0436    1.7449   -1.1167 C      0
    0.1142    2.7132   -1.5799 H      0
   -1.2007    1.5674   -0.3515 C      0
   -1.9482    2.3511   -0.2865 H      0
   -1.3484    0.3922    0.3564 C      0
   -2.0895    0.2305    1.1194 H      0
   -0.1632   -0.1824    0.2256 C      0
   -0.2167   -0.8424    1.0071 H      0
   -1.0707   -1.6058   -0.3391 Co     0
   -1.6395   -1.3399   -2.5900 P      0
   -1.7818    0.3653   -3.1847 C      0
   -2.3155    1.0169   -2.5016 H      0
   -2.3088    0.3797   -4.1364 H      0
   -0.8001    0.7920   -3.3684 H      0
   -0.2072   -1.5859   -3.6683 C      0
    0.1159   -2.6246   -3.6602 H      0
    0.6278   -0.9656   -3.3493 H      0
   -0.4518   -1.3209   -4.6948 H      0
   -2.1994   -2.9417   -3.2137 C      0
   -2.3182   -2.9104   -4.2948 H      0
   -3.1580   -3.2176   -2.7808 H      0
   -1.4788   -3.7213   -2.9761 H      0
   -3.4094   -1.4426   -0.1077 P      0
   -4.8401   -2.3728   -0.7164 C      0
   -4.7321   -2.5879   -1.7775 H      0
   -5.7464   -1.7845   -0.5889 H      0
   -4.9942   -3.3100   -0.1962 H      0
   -4.0439    0.1175   -0.7896 C      0
   -3.9322    0.1722   -1.8655 H      0
   -3.6352    1.0105   -0.3323 H      0
   -5.1150    0.1573   -0.6029 H      0
   -3.5282   -1.6971    1.6841 C      0
   -4.1750   -0.9416    2.1252 H      0
   -3.9588   -2.6611    1.9256 H      0
   -2.5573   -1.6308    2.1688 H      0
   -3.7557   -5.1268    1.1554 C      0
   -3.5279   -4.8164    2.1696 H      0
   -4.9069   -5.8593    0.9183 C      0
   -5.5643   -6.1140    1.7430 H      0
   -1.9334   -3.7351    1.7664 H      0
   -3.0142   -1.2404   -2.8273 H      0
   -3.0645   -2.4981   -0.9488 H      0
  1  2  1
  2  3  4
  3  4  1
  3  5  4
  5  6  1
  5  7  4
  7  8  1
  8  9  1
  9 10  4
 10 11  1
 10 12  4
 12 13  1
 12 14  4
 14 15  1
 14 16  4
 16 17  1
 16 18  4
  9 18  4
 18 19  1
  8 20  1
 20 21  4
 21 22  1
 21 23  4
 23 24  1
 23 25  4
 25 26  1
 25 27  4
 27 28  1
 27 29  4
 20 29  4
 29 30  1
 30 31  2
 31 32  1
 32 33  4
 33 34  1
 33 35  4
 35 36  1
 35 37  4
 37 38  1
 37 39  4
 39 40  1
 39 41  4
 32 41  4
 41 42  1
 42 43  1
 30 43  1
 41 43  1
  8 43  1
 43 44  1
 44 45  1
 45 46  1
 45 47  1
 45 48  1
 44 49  1
 49 50  1
 49 51  1
 49 52  1
 44 53  1
 53 54  1
 53 55  1
 53 56  1
 43 57  1
 57 58  1
 58 59  1
 58 60  1
 58 61  1
 57 62  1
 62 63  1
 62 64  1
 62 65  1
 57 66  1
 66 67  1
 66 68  1
 66 69  1
  7 70  4
 70 71  1
 70 72  4
  2 72  4
 72 73  1
  8 74  1
 44 75  1
 57 76  1
M  END
$$$$
