
     RDKit          3D

 46 54  0  0  0  0  0  0  0  0999 V2000
    0.1734   -1.7333    1.4193 Cl  0  0  0  0  0  0  0  0  0  0  0  0
   -0.3597    0.2617    0.3917 Ir  0  0  0  0  0  9  0  0  0  0  0  0
    0.4130    1.5682    1.5661 C   0  0  0  0  0  0  0  0  0  0  0  0
    1.2329    0.6931    1.2746 C   0  0  0  0  0  0  0  0  0  0  0  0
    2.5312   -0.0615    1.2233 C   0  0  0  0  0  0  0  0  0  0  0  0
    3.7076   -0.3562    1.8722 C   0  0  0  0  0  0  0  0  0  0  0  0
    4.7192   -0.7537    1.0469 C   0  0  0  0  0  0  0  0  0  0  0  0
    4.5914   -0.8510   -0.3114 C   0  0  0  0  0  0  0  0  0  0  0  0
    3.3992   -0.5557   -0.9012 C   0  0  0  0  0  0  0  0  0  0  0  0
    3.5652   -0.5139   -2.2952 C   0  0  0  0  0  0  0  0  0  0  0  0
    2.4816   -0.0372   -3.0003 C   0  0  0  0  0  0  0  0  0  0  0  0
    1.3572    0.3342   -2.3042 C   0  0  0  0  0  0  0  0  0  0  0  0
    1.0696    0.3243   -0.9005 C   0  0  0  0  0  0  0  0  0  0  0  0
    2.2014   -0.1399   -0.1995 C   0  0  0  0  0  0  0  0  0  0  0  0
   -1.5546   -1.0657    0.7668 C   0  0  0  0  0  0  0  0  0  0  0  0
   -2.9294   -1.4667    0.6348 C   0  0  0  0  0  0  0  0  0  0  0  0
   -1.1088   -0.7680   -0.5301 C   0  0  0  0  0  0  0  0  0  0  0  0
   -1.2821   -1.6238   -1.6398 C   0  0  0  0  0  0  0  0  0  0  0  0
   -1.5765    0.5651   -0.6127 C   0  0  0  0  0  0  0  0  0  0  0  0
   -2.0161    1.0173   -1.8943 C   0  0  0  0  0  0  0  0  0  0  0  0
   -1.9059    1.0199    0.5675 C   0  0  0  0  0  0  0  0  0  0  0  0
   -2.7195    2.0696    0.9777 C   0  0  0  0  0  0  0  0  0  0  0  0
   -1.5331    0.0804    1.5359 C   0  0  0  0  0  0  0  0  0  0  0  0
   -1.8453    0.2741    2.9065 C   0  0  0  0  0  0  0  0  0  0  0  0
    0.4756    2.5363    2.2195 H   0  0  0  0  0  0  0  0  0  0  0  0
    3.5435   -0.2024    2.9166 H   0  0  0  0  0  0  0  0  0  0  0  0
    5.5876   -0.9659    1.6231 H   0  0  0  0  0  0  0  0  0  0  0  0
    5.4735   -1.1624   -0.7909 H   0  0  0  0  0  0  0  0  0  0  0  0
    4.4110   -0.8004   -2.8654 H   0  0  0  0  0  0  0  0  0  0  0  0
    2.3258    0.1059   -4.0258 H   0  0  0  0  0  0  0  0  0  0  0  0
    0.5066    0.7379   -2.8288 H   0  0  0  0  0  0  0  0  0  0  0  0
   -2.9525   -2.4458    0.1026 H   0  0  0  0  0  0  0  0  0  0  0  0
   -3.4063   -1.6535    1.6142 H   0  0  0  0  0  0  0  0  0  0  0  0
   -3.6322   -0.8129    0.0740 H   0  0  0  0  0  0  0  0  0  0  0  0
   -2.3230   -1.5331   -2.0073 H   0  0  0  0  0  0  0  0  0  0  0  0
   -0.6600   -1.3377   -2.5389 H   0  0  0  0  0  0  0  0  0  0  0  0
   -0.9788   -2.6661   -1.4286 H   0  0  0  0  0  0  0  0  0  0  0  0
   -1.4467    1.9579   -2.1549 H   0  0  0  0  0  0  0  0  0  0  0  0
   -3.1165    1.1974   -1.8386 H   0  0  0  0  0  0  0  0  0  0  0  0
   -1.8890    0.3424   -2.7752 H   0  0  0  0  0  0  0  0  0  0  0  0
   -2.7670    2.8521    0.1597 H   0  0  0  0  0  0  0  0  0  0  0  0
   -2.3871    2.6862    1.8654 H   0  0  0  0  0  0  0  0  0  0  0  0
   -3.7566    1.7505    1.2000 H   0  0  0  0  0  0  0  0  0  0  0  0
   -2.0080   -0.6617    3.4580 H   0  0  0  0  0  0  0  0  0  0  0  0
   -2.6465    1.0304    2.9972 H   0  0  0  0  0  0  0  0  0  0  0  0
   -0.9655    0.7634    3.4301 H   0  0  0  0  0  0  0  0  0  0  0  0
  1  2  1  0
  2  3  1  0
  3  4  2  0
  4  5  1  0
  5  6  2  0
  6  7  1  0
  7  8  2  0
  8  9  1  0
  9 10  2  0
 10 11  1  0
 11 12  2  0
 12 13  1  0
 13 14  2  0
  2 15  1  0
 15 16  1  0
 15 17  1  0
 17 18  1  0
 17 19  1  0
 19 20  1  0
 19 21  1  0
 21 22  1  0
 21 23  1  0
 23 24  1  0
  4  2  1  0
 14  5  1  0
 23 15  1  0
 13  2  1  0
 17  2  1  0
 19  2  1  0
 21  2  1  0
 23  2  1  0
 14  9  1  0
  3 25  1  0
  6 26  1  0
  7 27  1  0
  8 28  1  0
 10 29  1  0
 11 30  1  0
 12 31  1  0
 16 32  1  0
 16 33  1  0
 16 34  1  0
 18 35  1  0
 18 36  1  0
 18 37  1  0
 20 38  1  0
 20 39  1  0
 20 40  1  0
 22 41  1  0
 22 42  1  0
 22 43  1  0
 24 44  1  0
 24 45  1  0
 24 46  1  0
M  END
