
 OpenBabel09252514333D

 42 41  0  0  0  0  0  0  0  0999 V2000
    1.0901   -0.0310   -0.0302 C   0  0  0  0  0  0  0  0  0  0  0  0
    0.3835   -1.2337   -1.6266 Pt  0  0  0  0  0  0  0  0  0  0  0  0
    2.1144   -2.4486   -1.4777 C   0  0  0  0  0  0  0  0  0  0  0  0
   -0.6159   -2.4875   -0.2397 C   0  0  0  0  0  0  0  0  0  0  0  0
   -0.3065   -2.4080   -3.1854 N   0  0  0  0  0  0  0  0  0  0  0  0
    0.3803   -3.3992   -3.5866 N   0  3  0  0  0  0  0  0  0  0  0  0
    1.0671   -4.3904   -3.9878 N   0  5  0  0  0  0  0  0  0  0  0  0
   -1.6006    0.1588   -1.7974 P   0  0  0  0  0  4  0  0  0  0  0  0
   -1.1939    1.8663   -1.2795 C   0  0  0  0  0  0  0  0  0  0  0  0
   -2.1901    0.1710   -3.5298 C   0  0  0  0  0  0  0  0  0  0  0  0
   -2.9120   -0.5120   -0.7116 C   0  0  0  0  0  0  0  0  0  0  0  0
    1.5290    0.2035   -3.2164 P   0  0  0  0  0  4  0  0  0  0  0  0
    0.8841    1.9099   -3.0708 C   0  0  0  0  0  0  0  0  0  0  0  0
    3.3241    0.1974   -2.8608 C   0  0  0  0  0  0  0  0  0  0  0  0
    1.2414   -0.4145   -4.9147 C   0  0  0  0  0  0  0  0  0  0  0  0
    0.7335   -0.4253    0.8984 H   0  0  0  0  0  0  0  0  0  0  0  0
    0.7335    0.9703   -0.1530 H   0  0  0  0  0  0  0  0  0  0  0  0
    2.1601   -0.0310   -0.0302 H   0  0  0  0  0  0  0  0  0  0  0  0
    2.4591   -2.4557   -0.4647 H   0  0  0  0  0  0  0  0  0  0  0  0
    1.8767   -3.4469   -1.7805 H   0  0  0  0  0  0  0  0  0  0  0  0
    2.8812   -2.0563   -2.1126 H   0  0  0  0  0  0  0  0  0  0  0  0
   -1.6655   -2.4840   -0.4476 H   0  0  0  0  0  0  0  0  0  0  0  0
   -0.2388   -3.4853   -0.3248 H   0  0  0  0  0  0  0  0  0  0  0  0
   -0.4478   -2.1262    0.7533 H   0  0  0  0  0  0  0  0  0  0  0  0
   -0.4272    2.2585   -1.9144 H   0  0  0  0  0  0  0  0  0  0  0  0
   -2.0676    2.4794   -1.3547 H   0  0  0  0  0  0  0  0  0  0  0  0
   -0.8493    1.8592   -0.2665 H   0  0  0  0  0  0  0  0  0  0  0  0
   -2.4279   -0.8273   -3.8327 H   0  0  0  0  0  0  0  0  0  0  0  0
   -3.0637    0.7842   -3.6050 H   0  0  0  0  0  0  0  0  0  0  0  0
   -1.4233    0.5632   -4.1647 H   0  0  0  0  0  0  0  0  0  0  0  0
   -3.1498   -1.5103   -1.0144 H   0  0  0  0  0  0  0  0  0  0  0  0
   -2.5674   -0.5191    0.3014 H   0  0  0  0  0  0  0  0  0  0  0  0
   -3.7857    0.1012   -0.7868 H   0  0  0  0  0  0  0  0  0  0  0  0
    1.0522    2.2712   -2.0778 H   0  0  0  0  0  0  0  0  0  0  0  0
    1.3885    2.5427   -3.7708 H   0  0  0  0  0  0  0  0  0  0  0  0
   -0.1655    1.9135   -3.2787 H   0  0  0  0  0  0  0  0  0  0  0  0
    3.7012   -0.8004   -2.9459 H   0  0  0  0  0  0  0  0  0  0  0  0
    3.8285    0.8302   -3.5608 H   0  0  0  0  0  0  0  0  0  0  0  0
    3.4922    0.5587   -1.8678 H   0  0  0  0  0  0  0  0  0  0  0  0
    1.6185   -1.4123   -4.9998 H   0  0  0  0  0  0  0  0  0  0  0  0
    0.1918   -0.4110   -5.1226 H   0  0  0  0  0  0  0  0  0  0  0  0
    1.7458    0.2183   -5.6147 H   0  0  0  0  0  0  0  0  0  0  0  0
  1  2  1  0  0  0  0
  1 16  1  0  0  0  0
  1 17  1  0  0  0  0
  1 18  1  0  0  0  0
  2  3  1  0  0  0  0
  2  4  1  0  0  0  0
  2  5  1  0  0  0  0
  2  8  1  0  0  0  0
  2 12  1  0  0  0  0
  3 19  1  0  0  0  0
  3 20  1  0  0  0  0
  3 21  1  0  0  0  0
  4 22  1  0  0  0  0
  4 23  1  0  0  0  0
  4 24  1  0  0  0  0
  5  6  2  0  0  0  0
  6  7  2  0  0  0  0
  8  9  1  0  0  0  0
  8 10  1  0  0  0  0
  8 11  1  0  0  0  0
  9 25  1  0  0  0  0
  9 26  1  0  0  0  0
  9 27  1  0  0  0  0
 10 28  1  0  0  0  0
 10 29  1  0  0  0  0
 10 30  1  0  0  0  0
 11 31  1  0  0  0  0
 11 32  1  0  0  0  0
 11 33  1  0  0  0  0
 12 13  1  0  0  0  0
 12 14  1  0  0  0  0
 12 15  1  0  0  0  0
 13 34  1  0  0  0  0
 13 35  1  0  0  0  0
 13 36  1  0  0  0  0
 14 37  1  0  0  0  0
 14 38  1  0  0  0  0
 14 39  1  0  0  0  0
 15 40  1  0  0  0  0
 15 41  1  0  0  0  0
 15 42  1  0  0  0  0
M  CHG  2   6   1   7  -1
M  END
$$$$
