
     RDKit          3D

  0  0  0  0  0  0  0  0  0  0999 V3000
M  V30 BEGIN CTAB
M  V30 COUNTS 109 117 0 0 0
M  V30 BEGIN ATOM
M  V30 1 C -0.238473 1.111503 -5.331289 0
M  V30 2 C 0.116630 0.840469 -4.016722 0
M  V30 3 N 0.410706 0.594746 -2.848558 0
M  V30 4 Fe 0.942074 0.166358 -0.880684 0 CHG=2 VAL=6
M  V30 5 N 2.690540 0.384245 -2.088892 0
M  V30 6 C 3.664528 0.520775 -2.781327 0
M  V30 7 C 4.774275 0.683088 -3.599897 0
M  V30 8 N 1.987376 1.174894 0.634633 0
M  V30 9 C 1.416061 2.257766 0.797481 0
M  V30 10 C 0.292895 3.114746 0.315843 0
M  V30 11 P -0.802871 1.606109 -0.001006 0 RAD=2 VAL=4
M  V30 12 C -1.957311 2.388127 -1.088939 0
M  V30 13 C -3.293014 2.467233 -1.030374 0
M  V30 14 C -4.075758 3.082279 -1.937371 0
M  V30 15 C -3.551067 3.708718 -3.046663 0
M  V30 16 C -4.382627 4.394169 -4.061265 0
M  V30 17 C -2.204515 3.695963 -3.213504 0
M  V30 18 C -1.451457 3.038164 -2.232001 0
M  V30 19 C -1.640314 1.152588 1.392656 0
M  V30 20 C -1.059914 1.611685 2.602523 0
M  V30 21 C -1.628568 1.365212 3.857265 0
M  V30 22 C -2.799170 0.650372 3.944299 0
M  V30 23 C -3.500881 0.321322 5.229148 0
M  V30 24 C -3.403220 0.182261 2.799179 0
M  V30 25 C -2.792805 0.459984 1.610966 0
M  V30 26 C 3.142029 0.477666 1.241479 0
M  V30 27 C 3.083581 -1.015265 1.006855 0
M  V30 28 N 2.014993 -1.399576 0.066377 0
M  V30 29 C 1.398346 -2.420832 -0.303749 0
M  V30 30 C 0.330000 -2.936015 -1.220979 0
M  V30 31 P -0.828032 -1.490458 -0.623834 0 RAD=2 VAL=4
M  V30 32 C -2.136084 -1.665258 -1.630543 0
M  V30 33 C -1.852086 -1.816267 -3.014841 0
M  V30 34 C -2.745695 -1.952547 -4.071720 0
M  V30 35 C -4.089417 -1.946966 -3.794617 0
M  V30 36 C -5.108542 -2.089723 -4.852612 0
M  V30 37 C -4.457288 -1.805491 -2.483416 0
M  V30 38 C -3.493328 -1.678060 -1.520098 0
M  V30 39 C -1.180083 -1.909863 1.048696 0
M  V30 40 C -0.450571 -1.521416 2.184545 0
M  V30 41 C -0.704470 -1.961479 3.458804 0
M  V30 42 C -1.737626 -2.843307 3.666605 0
M  V30 43 C -2.026284 -3.330158 5.036882 0
M  V30 44 C -2.432210 -3.209837 2.560728 0
M  V30 45 C -2.203100 -2.788191 1.271597 0
M  V30 46 C 4.320998 -1.509523 0.362085 0
M  V30 47 C 5.486053 -0.790161 0.512372 0
M  V30 48 C 6.705822 -1.172229 -0.057506 0
M  V30 49 C 6.789224 -2.328937 -0.820551 0
M  V30 50 C 5.643216 -3.071501 -0.990589 0
M  V30 51 C 4.481167 -2.638779 -0.403739 0
M  V30 52 C 3.568967 0.920772 2.500529 0
M  V30 53 C 3.745390 0.176325 3.633514 0
M  V30 54 C 4.182805 0.774275 4.784517 0
M  V30 55 C 4.470890 2.120481 4.896402 0
M  V30 56 C 4.292870 2.867448 3.754607 0
M  V30 57 C 3.852757 2.287214 2.581802 0
M  V30 58 H 0.208043 2.066209 -5.652832 0
M  V30 59 H 0.096557 0.232181 -5.955896 0
M  V30 60 H -1.350918 1.151331 -5.479115 0
M  V30 61 H 4.661882 1.473412 -4.384464 0
M  V30 62 H 5.637555 0.952833 -2.987910 0
M  V30 63 H 4.888433 -0.256938 -4.193409 0
M  V30 64 H 1.459350 3.024485 1.358325 0
M  V30 65 H 0.494041 3.618992 -0.645444 0
M  V30 66 H -0.228481 3.745283 1.005319 0
M  V30 67 H -3.817978 2.035062 -0.203356 0
M  V30 68 H -5.173541 3.119689 -1.844020 0
M  V30 69 H -4.059350 4.080870 -5.066985 0
M  V30 70 H -5.465117 4.210673 -3.876708 0
M  V30 71 H -4.152877 5.484974 -3.947133 0
M  V30 72 H -1.692011 4.156488 -4.044974 0
M  V30 73 H -0.372388 3.062460 -2.386011 0
M  V30 74 H -0.153210 2.189582 2.812311 0
M  V30 75 H -1.279808 1.661415 4.834494 0
M  V30 76 H -2.756745 0.324002 6.052337 0
M  V30 77 H -4.029412 -0.646259 5.162268 0
M  V30 78 H -4.192452 1.171900 5.428531 0
M  V30 79 H -4.330647 -0.389023 2.812247 0
M  V30 80 H -3.253596 0.091544 0.726391 0
M  V30 81 H 3.958673 0.813733 0.496369 0
M  V30 82 H 3.077061 -1.573741 1.928407 0
M  V30 83 H 1.360952 -3.336498 0.004424 0
M  V30 84 H 0.521583 -2.692530 -2.257762 0
M  V30 85 H -0.193520 -3.820433 -0.958473 0
M  V30 86 H -0.823201 -1.835142 -3.421813 0
M  V30 87 H -2.467469 -2.063504 -5.099377 0
M  V30 88 H -5.022307 -1.245838 -5.537383 0
M  V30 89 H -4.912961 -3.009956 -5.475930 0
M  V30 90 H -6.118535 -2.256231 -4.434943 0
M  V30 91 H -5.516787 -1.799622 -2.255986 0
M  V30 92 H -3.888055 -1.560781 -0.534124 0
M  V30 93 H 0.373702 -0.816886 1.981525 0
M  V30 94 H -0.097279 -1.616252 4.285907 0
M  V30 95 H -1.367335 -4.168361 5.339775 0
M  V30 96 H -1.774115 -2.495585 5.740619 0
M  V30 97 H -3.090539 -3.617534 5.156682 0
M  V30 98 H -3.261200 -3.915844 2.704382 0
M  V30 99 H -2.794906 -3.174599 0.467172 0
M  V30 100 H 5.637223 0.102022 1.062121 0
M  V30 101 H 7.647960 -0.651887 0.025543 0
M  V30 102 H 7.704062 -2.665846 -1.279406 0
M  V30 103 H 5.688997 -3.975155 -1.581073 0
M  V30 104 H 3.634001 -3.276574 -0.584201 0
M  V30 105 H 3.559088 -0.876655 3.690366 0
M  V30 106 H 4.327090 0.177443 5.700480 0
M  V30 107 H 4.811398 2.525141 5.833240 0
M  V30 108 H 4.530807 3.930241 3.877742 0
M  V30 109 H 3.780872 3.030586 1.796650 0
M  V30 END ATOM
M  V30 BEGIN BOND
M  V30 1 1 1 2
M  V30 2 3 2 3
M  V30 3 9 3 4
M  V30 4 9 5 4
M  V30 5 3 5 6
M  V30 6 1 6 7
M  V30 7 9 8 4
M  V30 8 2 8 9
M  V30 9 1 9 10
M  V30 10 1 10 11
M  V30 11 1 11 12
M  V30 12 2 12 13
M  V30 13 1 13 14
M  V30 14 2 14 15
M  V30 15 1 15 16
M  V30 16 1 15 17
M  V30 17 2 17 18
M  V30 18 1 11 19
M  V30 19 2 19 20
M  V30 20 1 20 21
M  V30 21 2 21 22
M  V30 22 1 22 23
M  V30 23 1 22 24
M  V30 24 2 24 25
M  V30 25 1 8 26
M  V30 26 1 26 27
M  V30 27 1 27 28
M  V30 28 2 28 29
M  V30 29 1 29 30
M  V30 30 1 30 31
M  V30 31 1 31 32
M  V30 32 2 32 33
M  V30 33 1 33 34
M  V30 34 2 34 35
M  V30 35 1 35 36
M  V30 36 1 35 37
M  V30 37 2 37 38
M  V30 38 1 31 39
M  V30 39 2 39 40
M  V30 40 1 40 41
M  V30 41 2 41 42
M  V30 42 1 42 43
M  V30 43 1 42 44
M  V30 44 2 44 45
M  V30 45 1 27 46
M  V30 46 2 46 47
M  V30 47 1 47 48
M  V30 48 2 48 49
M  V30 49 1 49 50
M  V30 50 2 50 51
M  V30 51 1 26 52
M  V30 52 2 52 53
M  V30 53 1 53 54
M  V30 54 2 54 55
M  V30 55 1 55 56
M  V30 56 2 56 57
M  V30 57 1 11 4
M  V30 58 1 18 12
M  V30 59 1 25 19
M  V30 60 1 38 32
M  V30 61 1 45 39
M  V30 62 1 51 46
M  V30 63 1 57 52
M  V30 64 9 28 4
M  V30 65 1 31 4
M  V30 66 1 1 58
M  V30 67 1 1 59
M  V30 68 1 1 60
M  V30 69 1 7 61
M  V30 70 1 7 62
M  V30 71 1 7 63
M  V30 72 1 9 64
M  V30 73 1 10 65
M  V30 74 1 10 66
M  V30 75 1 13 67
M  V30 76 1 14 68
M  V30 77 1 16 69
M  V30 78 1 16 70
M  V30 79 1 16 71
M  V30 80 1 17 72
M  V30 81 1 18 73
M  V30 82 1 20 74
M  V30 83 1 21 75
M  V30 84 1 23 76
M  V30 85 1 23 77
M  V30 86 1 23 78
M  V30 87 1 24 79
M  V30 88 1 25 80
M  V30 89 1 26 81
M  V30 90 1 27 82
M  V30 91 1 29 83
M  V30 92 1 30 84
M  V30 93 1 30 85
M  V30 94 1 33 86
M  V30 95 1 34 87
M  V30 96 1 36 88
M  V30 97 1 36 89
M  V30 98 1 36 90
M  V30 99 1 37 91
M  V30 100 1 38 92
M  V30 101 1 40 93
M  V30 102 1 41 94
M  V30 103 1 43 95
M  V30 104 1 43 96
M  V30 105 1 43 97
M  V30 106 1 44 98
M  V30 107 1 45 99
M  V30 108 1 47 100
M  V30 109 1 48 101
M  V30 110 1 49 102
M  V30 111 1 50 103
M  V30 112 1 51 104
M  V30 113 1 53 105
M  V30 114 1 54 106
M  V30 115 1 55 107
M  V30 116 1 56 108
M  V30 117 1 57 109
M  V30 END BOND
M  V30 END CTAB
M  END
