
 OpenBabel09252517583D

 47 52  0  0  0  0  0  0  0  0999 V2000
    0.9883   -0.0634    0.0765 H   0  0  0  0  0  0  0  0  0  0  0  0
    2.0583   -0.0634    0.0765 C   0  0  0  0  0  0  0  0  0  0  0  0
    2.7162   -0.2132    1.2060 N   0  0  0  0  0  4  0  0  0  0  0  0
    2.0766   -0.3900    2.5843 C   0  0  0  0  0  0  0  0  0  0  0  0
    2.2635   -1.3818    2.9397 H   0  0  0  0  0  0  0  0  0  0  0  0
    2.4978    0.3186    3.2665 H   0  0  0  0  0  0  0  0  0  0  0  0
    0.5677   -0.1618    2.4791 C   0  0  0  0  0  0  0  0  0  0  0  0
    0.3430    0.3182    1.5496 H   0  0  0  0  0  0  0  0  0  0  0  0
    0.0604   -1.1028    2.5259 H   0  0  0  0  0  0  0  0  0  0  0  0
    0.1049    0.7257    3.6372 C   0  0  0  0  0  0  0  0  0  0  0  0
   -0.9210    0.5173    3.8584 H   0  0  0  0  0  0  0  0  0  0  0  0
    0.7037    0.5257    4.5011 H   0  0  0  0  0  0  0  0  0  0  0  0
    0.2510    2.1746    3.2490 N   0  0  0  0  0  4  0  0  0  0  0  0
    1.0271    2.9658    3.9478 C   0  0  0  0  0  0  0  0  0  0  0  0
    1.7807    2.4222    5.1507 C   0  0  0  0  0  0  0  0  0  0  0  0
    2.8326    2.5443    4.9975 H   0  0  0  0  0  0  0  0  0  0  0  0
    1.4838    2.9565    6.0289 H   0  0  0  0  0  0  0  0  0  0  0  0
    1.5563    1.3831    5.2724 H   0  0  0  0  0  0  0  0  0  0  0  0
    1.1727    4.4138    3.5595 C   0  0  0  0  0  3  0  0  0  0  0  0
    2.6227    4.8165    3.6554 C   0  0  0  0  0  3  0  0  0  0  0  0
    3.0893    4.1321    4.3327 H   0  0  0  0  0  0  0  0  0  0  0  0
    3.4781    4.8526    2.4155 C   0  0  0  0  0  3  0  0  0  0  0  0
    4.0417    5.7619    2.3970 H   0  0  0  0  0  0  0  0  0  0  0  0
    4.3871    3.7190    2.4224 C   0  0  0  0  0  3  0  0  0  0  0  0
    4.0001    2.9989    3.1127 H   0  0  0  0  0  0  0  0  0  0  0  0
    4.5872    3.0920    1.2527 C   0  0  0  0  0  3  0  0  0  0  0  0
    3.6294    2.7549    0.9152 H   0  0  0  0  0  0  0  0  0  0  0  0
    5.5151    1.9070    1.1826 C   0  0  0  0  0  3  0  0  0  0  0  0
    4.8501    0.7853    0.3821 O   0  0  0  0  0  0  0  0  0  0  0  0
    4.2396   -0.2316    1.3448 Cu  0  0  0  0  0  0  0  0  0  0  0  0
    5.7349   -1.4761    1.7137 O   0  0  0  0  0  0  0  0  0  0  0  0
    6.4914   -1.6717    0.5280 C   0  0  0  0  0  3  0  0  0  0  0  0
    7.0542   -0.3338    0.0459 C   0  0  0  0  0  3  0  0  0  0  0  0
    7.6247   -0.4876   -0.8462 H   0  0  0  0  0  0  0  0  0  0  0  0
    5.9020    0.6292   -0.2455 C   0  0  0  0  0  3  0  0  0  0  0  0
    6.2960    1.5650   -0.5831 H   0  0  0  0  0  0  0  0  0  0  0  0
    5.0017    0.0341   -1.3295 C   0  0  0  0  0  3  0  0  0  0  0  0
    3.8495    0.9971   -1.6209 C   0  0  0  0  0  3  0  0  0  0  0  0
    4.2435    1.9329   -1.9585 H   0  0  0  0  0  0  0  0  0  0  0  0
    2.9491    0.4020   -2.7049 C   0  0  0  0  0  3  0  0  0  0  0  0
    3.5194    0.2481   -3.5971 H   0  0  0  0  0  0  0  0  0  0  0  0
    2.3854   -0.9357   -2.2233 C   0  0  0  0  0  3  0  0  0  0  0  0
    1.7564   -1.3518   -2.9823 H   0  0  0  0  0  0  0  0  0  0  0  0
    3.5385   -1.8988   -1.9314 C   0  0  0  0  0  3  0  0  0  0  0  0
    4.1088   -2.0530   -2.8236 H   0  0  0  0  0  0  0  0  0  0  0  0
    4.4388   -1.3037   -0.8474 C   0  0  0  0  0  3  0  0  0  0  0  0
    5.5910   -2.2668   -0.5561 C   0  0  0  0  0  3  0  0  0  0  0  0
  1  2  1  0  0  0  0
  2  3  2  0  0  0  0
  2 47  1  0  0  0  0
  3  4  1  0  0  0  0
  3 30  1  0  0  0  0
  4  5  1  0  0  0  0
  4  6  1  0  0  0  0
  4  7  1  0  0  0  0
  7  8  1  0  0  0  0
  7  9  1  0  0  0  0
  7 10  1  0  0  0  0
 10 11  1  0  0  0  0
 10 12  1  0  0  0  0
 10 13  1  0  0  0  0
 13 14  2  0  0  0  0
 13 30  1  0  0  0  0
 14 15  1  0  0  0  0
 14 19  1  0  0  0  0
 15 16  1  0  0  0  0
 15 17  1  0  0  0  0
 15 18  1  0  0  0  0
 19 20  1  0  0  0  0
 19 28  1  0  0  0  0
 20 21  1  0  0  0  0
 20 22  1  0  0  0  0
 22 23  1  0  0  0  0
 22 24  1  0  0  0  0
 24 25  1  0  0  0  0
 24 26  1  0  0  0  0
 26 27  1  0  0  0  0
 26 28  1  0  0  0  0
 28 29  1  0  0  0  0
 29 30  1  0  0  0  0
 30 31  1  0  0  0  0
 31 32  1  0  0  0  0
 32 33  1  0  0  0  0
 32 47  1  0  0  0  0
 33 34  1  0  0  0  0
 33 35  1  0  0  0  0
 35 36  1  0  0  0  0
 35 37  1  0  0  0  0
 37 38  1  0  0  0  0
 37 46  1  0  0  0  0
 38 39  1  0  0  0  0
 38 40  1  0  0  0  0
 40 41  1  0  0  0  0
 40 42  1  0  0  0  0
 42 43  1  0  0  0  0
 42 44  1  0  0  0  0
 44 45  1  0  0  0  0
 44 46  1  0  0  0  0
 46 47  1  0  0  0  0
M  END
$$$$
