
     RDKit          3D

 57 60  0  0  0  0  0  0  0  0999 V2000
    2.4056    1.1624   -4.3978 C   0  0  0  0  0  0  0  0  0  0  0  0
    2.3146    0.6301   -3.0824 O   0  0  0  0  0  0  0  0  0  0  0  0
    3.3605    0.8762   -2.2270 C   0  0  0  0  0  0  0  0  0  0  0  0
    4.5809    1.4460   -2.6084 C   0  0  0  0  0  0  0  0  0  0  0  0
    5.5943    1.6511   -1.6665 C   0  0  0  0  0  0  0  0  0  0  0  0
    5.3999    1.2903   -0.3362 C   0  0  0  0  0  0  0  0  0  0  0  0
    4.1906    0.7194    0.0561 C   0  0  0  0  0  0  0  0  0  0  0  0
    3.1729    0.5082   -0.8833 C   0  0  0  0  0  0  0  0  0  0  0  0
    1.9439   -0.0810   -0.4386 C   0  0  0  0  0  0  0  0  0  0  0  0
    0.9082   -0.5657   -0.0673 C   0  0  0  0  0  0  0  0  0  0  0  0
   -0.3377   -1.1322    0.3696 C   0  0  0  0  0  0  0  0  0  0  0  0
   -1.1214   -0.5039    1.2789 C   0  0  0  0  0  0  0  0  0  0  0  0
   -0.5582    0.7381    1.8262 N   0  0  0  0  0  0  0  0  0  0  0  0
   -0.7250    1.9119    0.9868 C   0  0  0  0  0  0  0  0  0  0  0  0
   -1.9126    2.2171    0.3099 C   0  0  0  0  0  0  0  0  0  0  0  0
   -2.0145    3.3986   -0.4287 C   0  0  0  0  0  0  0  0  0  0  0  0
   -0.9422    4.2892   -0.4768 C   0  0  0  0  0  0  0  0  0  0  0  0
    0.2302    4.0067    0.2213 C   0  0  0  0  0  0  0  0  0  0  0  0
    0.3324    2.8281    0.9611 C   0  0  0  0  0  0  0  0  0  0  0  0
   -1.2157    0.9155    3.4187 S   0  0  0  0  0  0  0  0  0  0  0  0
   -0.3604    0.2393    4.3721 O   0  0  0  0  0  0  0  0  0  0  0  0
   -1.7434    2.2440    3.6468 O   0  0  0  0  0  0  0  0  0  0  0  0
   -2.5687   -0.1515    3.1297 C   0  0  0  0  0  0  0  0  0  0  0  0
   -3.6995   -0.2199    3.9337 C   0  0  0  0  0  0  0  0  0  0  0  0
   -4.7239   -1.0681    3.5286 C   0  0  0  0  0  0  0  0  0  0  0  0
   -4.5994   -1.7912    2.3352 C   0  0  0  0  0  0  0  0  0  0  0  0
   -3.4488   -1.6757    1.5364 C   0  0  0  0  0  0  0  0  0  0  0  0
   -2.3953   -0.8646    1.9442 C   0  0  0  0  0  0  0  0  0  0  0  0
   -0.5846   -2.8101   -0.4637 Si  0  0  0  0  0  4  0  0  0  0  0  0
   -1.8681   -2.6693   -1.8317 C   0  0  0  0  0  0  0  0  0  0  0  0
    1.0219   -3.4077   -1.3000 C   0  0  0  0  0  0  0  0  0  0  0  0
   -1.0285   -4.1488    0.7777 C   0  0  0  0  0  0  0  0  0  0  0  0
    1.4584    0.9573   -4.9092 H   0  0  0  0  0  0  0  0  0  0  0  0
    3.2026    0.6682   -4.9637 H   0  0  0  0  0  0  0  0  0  0  0  0
    2.5447    2.2491   -4.3781 H   0  0  0  0  0  0  0  0  0  0  0  0
    4.7797    1.7357   -3.6340 H   0  0  0  0  0  0  0  0  0  0  0  0
    6.5398    2.0921   -1.9746 H   0  0  0  0  0  0  0  0  0  0  0  0
    6.1890    1.4502    0.3941 H   0  0  0  0  0  0  0  0  0  0  0  0
    4.0415    0.4390    1.0966 H   0  0  0  0  0  0  0  0  0  0  0  0
   -2.7693    1.5526    0.3458 H   0  0  0  0  0  0  0  0  0  0  0  0
   -2.9338    3.6289   -0.9615 H   0  0  0  0  0  0  0  0  0  0  0  0
   -1.0239    5.2098   -1.0505 H   0  0  0  0  0  0  0  0  0  0  0  0
    1.0641    4.7034    0.1938 H   0  0  0  0  0  0  0  0  0  0  0  0
    1.2488    2.6144    1.5065 H   0  0  0  0  0  0  0  0  0  0  0  0
   -3.7808    0.3741    4.8394 H   0  0  0  0  0  0  0  0  0  0  0  0
   -5.6270   -1.1608    4.1286 H   0  0  0  0  0  0  0  0  0  0  0  0
   -5.4125   -2.4424    2.0165 H   0  0  0  0  0  0  0  0  0  0  0  0
   -3.4288   -2.2194    0.6020 H   0  0  0  0  0  0  0  0  0  0  0  0
   -2.7942   -2.2049   -1.4852 H   0  0  0  0  0  0  0  0  0  0  0  0
   -1.4786   -2.0598   -2.6539 H   0  0  0  0  0  0  0  0  0  0  0  0
   -2.1093   -3.6597   -2.2297 H   0  0  0  0  0  0  0  0  0  0  0  0
    1.8260   -3.4950   -0.5633 H   0  0  0  0  0  0  0  0  0  0  0  0
    1.3302   -2.7136   -2.0888 H   0  0  0  0  0  0  0  0  0  0  0  0
    0.8592   -4.3905   -1.7527 H   0  0  0  0  0  0  0  0  0  0  0  0
   -0.2685   -4.2054    1.5642 H   0  0  0  0  0  0  0  0  0  0  0  0
   -1.0686   -5.1234    0.2802 H   0  0  0  0  0  0  0  0  0  0  0  0
   -1.9967   -3.9826    1.2533 H   0  0  0  0  0  0  0  0  0  0  0  0
  1  2  1  0
  2  3  1  0
  3  4  2  0
  4  5  1  0
  5  6  2  0
  6  7  1  0
  7  8  2  0
  8  9  1  0
  9 10  3  0
 10 11  1  0
 11 12  2  3
 12 13  1  0
 13 14  1  0
 14 15  2  0
 15 16  1  0
 16 17  2  0
 17 18  1  0
 18 19  2  0
 13 20  1  0
 20 21  2  0
 20 22  2  0
 20 23  1  0
 23 24  2  0
 24 25  1  0
 25 26  2  0
 26 27  1  0
 27 28  2  0
 11 29  1  0
 29 30  1  0
 29 31  1  0
 29 32  1  0
  8  3  1  0
 28 12  1  0
 19 14  1  0
 28 23  1  0
  1 33  1  0
  1 34  1  0
  1 35  1  0
  4 36  1  0
  5 37  1  0
  6 38  1  0
  7 39  1  0
 15 40  1  0
 16 41  1  0
 17 42  1  0
 18 43  1  0
 19 44  1  0
 24 45  1  0
 25 46  1  0
 26 47  1  0
 27 48  1  0
 30 49  1  0
 30 50  1  0
 30 51  1  0
 31 52  1  0
 31 53  1  0
 31 54  1  0
 32 55  1  0
 32 56  1  0
 32 57  1  0
M  END
