
     RDKit          3D

 35 38  0  0  0  0  0  0  0  0999 V2000
   -3.3728   -1.4483   -1.5757 C   0  0  0  0  0  0  0  0  0  0  0  0
   -1.9951   -1.3285   -1.3615 C   0  0  0  0  0  0  0  0  0  0  0  0
   -1.4689   -0.3978   -0.4538 C   0  0  0  0  0  0  0  0  0  0  0  0
   -0.0420   -0.2580   -0.2475 N   0  0  0  0  0  0  0  0  0  0  0  0
    0.8315   -1.3126   -0.4940 C   0  0  0  0  0  0  0  0  0  0  0  0
    0.5087   -2.4627   -0.7894 O   0  0  0  0  0  0  0  0  0  0  0  0
    2.3008   -1.0288   -0.3123 C   0  0  2  0  0  0  0  0  0  0  0  0
    2.7786   -1.1783    1.1464 C   0  0  0  0  0  0  0  0  0  0  0  0
    3.5597    0.1347    1.3354 C   0  0  2  0  0  0  0  0  0  0  0  0
    4.7864    0.0174    2.7919 Br  0  0  0  0  0  0  0  0  0  0  0  0
    2.5702    1.1647    1.5252 O   0  0  0  0  0  0  0  0  0  0  0  0
    1.9348    1.3379    0.2319 C   0  0  2  0  0  0  0  0  0  0  0  0
    2.0698    3.0599   -0.2257 Cl  0  0  0  0  0  0  0  0  0  0  0  0
    0.4329    0.9935    0.3662 C   0  0  0  0  0  0  0  0  0  0  0  0
    2.7463    0.4000   -0.6780 C   0  0  1  0  0  0  0  0  0  0  0  0
    4.1474    0.3662   -0.0498 C   0  0  1  0  0  0  0  0  0  0  0  0
    5.4120    1.9974   -0.3797 I   0  0  0  0  0  0  0  0  0  0  0  0
   -2.3891    0.4221    0.2255 C   0  0  0  0  0  0  0  0  0  0  0  0
   -3.7810    0.3068    0.0288 C   0  0  0  0  0  0  0  0  0  0  0  0
   -4.7295    1.2131    0.7744 C   0  0  0  0  0  0  0  0  0  0  0  0
   -4.3203    1.4722    2.0479 F   0  0  0  0  0  0  0  0  0  0  0  0
   -5.9891    0.7075    0.8837 F   0  0  0  0  0  0  0  0  0  0  0  0
   -4.8620    2.4264    0.1716 F   0  0  0  0  0  0  0  0  0  0  0  0
   -4.2630   -0.6338   -0.8857 C   0  0  0  0  0  0  0  0  0  0  0  0
   -3.7439   -2.1802   -2.2900 H   0  0  0  0  0  0  0  0  0  0  0  0
   -1.3509   -1.9716   -1.9555 H   0  0  0  0  0  0  0  0  0  0  0  0
    2.8430   -1.7404   -0.9517 H   0  0  0  0  0  0  0  0  0  0  0  0
    1.9483   -1.2759    1.8551 H   0  0  0  0  0  0  0  0  0  0  0  0
    3.4179   -2.0645    1.2363 H   0  0  0  0  0  0  0  0  0  0  0  0
    0.1667    0.9485    1.4301 H   0  0  0  0  0  0  0  0  0  0  0  0
   -0.1549    1.7947   -0.0989 H   0  0  0  0  0  0  0  0  0  0  0  0
    2.6815    0.6143   -1.7477 H   0  0  0  0  0  0  0  0  0  0  0  0
    4.7135   -0.5156   -0.3827 H   0  0  0  0  0  0  0  0  0  0  0  0
   -2.0550    1.1568    0.9550 H   0  0  0  0  0  0  0  0  0  0  0  0
   -5.3324   -0.7369   -1.0634 H   0  0  0  0  0  0  0  0  0  0  0  0
  1  2  2  0
  2  3  1  0
  3  4  1  0
  4  5  1  0
  5  6  2  0
  5  7  1  0
  7  8  1  0
  8  9  1  0
  9 10  1  1
  9 11  1  0
 11 12  1  0
 12 13  1  6
 12 14  1  0
 12 15  1  0
 15 16  1  0
 16 17  1  0
  3 18  2  0
 18 19  1  0
 19 20  1  0
 20 21  1  0
 20 22  1  0
 20 23  1  0
 19 24  2  0
 24  1  1  0
 14  4  1  0
 15  7  1  0
 16  9  1  0
  1 25  1  0
  2 26  1  0
  7 27  1  6
  8 28  1  0
  8 29  1  0
 14 30  1  0
 14 31  1  0
 15 32  1  6
 16 33  1  6
 18 34  1  0
 24 35  1  0
M  END
