
  --CCDC--092525    3D                              

 80 84  0  0  0  0  0  0  0  0999 V2000
    1.1307   -0.0982   -0.1812 Cl     0
    1.8255    2.2506   -0.2195 Ru     0
    0.6583    2.6431    1.5264 C      0
   -0.1777    3.8973    1.6521 C      0
   -1.0198    3.9925    2.7687 C      0
   -1.8820    5.0597    2.9366 C      0
   -1.9170    6.0547    1.9867 C      0
   -1.0938    5.9820    0.8749 C      0
   -0.2121    4.9140    0.6799 C      0
    0.7045    4.9308   -0.5351 C      0
    0.2316    6.0525   -1.4454 C      0
    0.6788    3.7176   -1.2703 N      0
   -0.6591    3.2718   -1.4398 C      0
    1.2698    3.9342   -2.5437 C      0
    3.8693    2.9034    0.9639 Cl     0
    2.9606    1.8815   -1.9953 C      0
    3.8783    0.7277   -1.8180 N      0
    5.2223    1.0513   -2.3300 C      0
    5.2704    2.5353   -2.0790 C      0
    3.8846    2.9805   -2.3259 N      0
    3.6002    3.8028   -3.4716 C      0
    3.3419    3.2530   -4.7340 C      0
    3.4326    1.7821   -5.0405 C      0
    3.0368    4.1224   -5.7776 C      0
    3.0162    5.4982   -5.6195 C      0
    2.6888    6.4107   -6.7761 C      0
    3.3318    6.0099   -4.3724 C      0
    3.6284    5.1890   -3.2891 C      0
    3.9652    5.8139   -1.9612 C      0
    3.3669   -0.6303   -1.9578 C      0
    2.2372   -0.9747   -2.7354 C      0
    1.2420   -0.0373   -3.3663 C      0
    1.9533   -2.3204   -2.9512 C      0
    2.6881   -3.3470   -2.3940 C      0
    2.3674   -4.7936   -2.6807 C      0
    3.7005   -2.9903   -1.5278 C      0
    4.0257   -1.6652   -1.2580 C      0
    5.0263   -1.4681   -0.1464 C      0
    0.6697    1.9274    2.3445 H      0
   -0.9941    3.2066    3.5221 H      0
   -2.5273    5.1126    3.8122 H      0
   -2.5924    6.9000    2.1091 H      0
   -1.1343    6.7779    0.1327 H      0
    1.7332    5.1518   -0.2200 H      0
   -0.8188    5.9274   -1.6997 H      0
    0.8068    6.1059   -2.3677 H      0
    0.3414    7.0116   -0.9436 H      0
   -0.7059    2.5080   -2.2132 H      0
   -1.3053    4.0936   -1.7412 H      0
   -1.0598    2.8349   -0.5275 H      0
    1.5065    2.9967   -3.0365 H      0
    2.1764    4.5240   -2.4476 H      0
    0.5901    4.4713   -3.2024 H      0
    5.3133    0.8211   -3.3905 H      0
    5.9992    0.5259   -1.7765 H      0
    5.9622    3.0223   -2.7647 H      0
    5.5682    2.7455   -1.0528 H      0
    4.2969    1.5735   -5.6676 H      0
    2.5437    1.4463   -5.5700 H      0
    3.5294    1.1978   -4.1282 H      0
    2.8158    3.7066   -6.7551 H      0
    2.9881    5.9596   -7.7199 H      0
    3.2072    7.3619   -6.6756 H      0
    1.6201    6.6100   -6.8196 H      0
    3.3450    7.0860   -4.2346 H      0
    4.5840    5.1467   -1.3652 H      0
    3.0607    6.0321   -1.3974 H      0
    4.5096    6.7455   -2.1010 H      0
    1.7032    0.5386   -4.1632 H      0
    0.8327    0.6534   -2.6329 H      0
    0.4134   -0.5964   -3.7959 H      0
    1.1111   -2.5745   -3.5863 H      0
    1.3079   -4.9187   -2.8942 H      0
    2.6175   -5.4205   -1.8274 H      0
    2.9308   -5.1505   -3.5402 H      0
    4.2555   -3.7753   -1.0248 H      0
    5.0263   -2.3216    0.5282 H      0
    6.0311   -1.3533   -0.5477 H      0
    4.7890   -0.5783    0.4331 H      0
    2.2896    1.6964   -2.8328 H      0
  1  2  1
  2  3  2
  3  4  1
  4  5  4
  5  6  4
  6  7  4
  7  8  4
  8  9  4
  4  9  4
  9 10  1
 10 11  1
 10 12  1
  2 12  1
 12 13  1
 12 14  1
  2 15  1
  2 16  1
 16 17  1
 17 18  1
 18 19  1
 19 20  1
 16 20  1
 20 21  1
 21 22  4
 22 23  1
 22 24  4
 24 25  4
 25 26  1
 25 27  4
 27 28  4
 21 28  4
 28 29  1
 17 30  1
 30 31  4
 31 32  1
 31 33  4
 33 34  4
 34 35  1
 34 36  4
 36 37  4
 30 37  4
 37 38  1
  3 39  1
  5 40  1
  6 41  1
  7 42  1
  8 43  1
 10 44  1
 11 45  1
 11 46  1
 11 47  1
 13 48  1
 13 49  1
 13 50  1
 14 51  1
 14 52  1
 14 53  1
 18 54  1
 18 55  1
 19 56  1
 19 57  1
 23 58  1
 23 59  1
 23 60  1
 24 61  1
 26 62  1
 26 63  1
 26 64  1
 27 65  1
 29 66  1
 29 67  1
 29 68  1
 32 69  1
 32 70  1
 32 71  1
 33 72  1
 35 73  1
 35 74  1
 35 75  1
 36 76  1
 38 77  1
 38 78  1
 38 79  1
 16 80  1
M  END
$$$$
