
 OpenBabel09252516343D

 47 52  0  0  0  0  0  0  0  0999 V2000
    1.0287    0.0060   -0.0956 H   0  0  0  0  0  0  0  0  0  0  0  0
    2.0987    0.0060   -0.0956 C   0  0  0  0  0  0  0  0  0  0  0  0
    2.7565    0.7781   -0.9335 N   0  0  0  0  0  4  0  0  0  0  0  0
    1.9570    1.7483   -1.8050 C   0  0  0  0  0  0  0  0  0  0  0  0
    2.1030    2.7479   -1.4522 H   0  0  0  0  0  0  0  0  0  0  0  0
    2.2914    1.6755   -2.8188 H   0  0  0  0  0  0  0  0  0  0  0  0
    0.4709    1.3935   -1.7314 C   0  0  0  0  0  0  0  0  0  0  0  0
    0.3577    0.4143   -1.3151 H   0  0  0  0  0  0  0  0  0  0  0  0
   -0.0355    2.1044   -1.1125 H   0  0  0  0  0  0  0  0  0  0  0  0
   -0.1299    1.4226   -3.1389 C   0  0  0  0  0  0  0  0  0  0  0  0
   -1.1743    1.6466   -3.0765 H   0  0  0  0  0  0  0  0  0  0  0  0
    0.3618    2.1738   -3.7211 H   0  0  0  0  0  0  0  0  0  0  0  0
    0.0573    0.0777   -3.7929 N   0  0  0  0  0  4  0  0  0  0  0  0
    0.7417   -0.0210   -4.9057 C   0  0  0  0  0  0  0  0  0  0  0  0
    1.3475    1.2216   -5.5377 C   0  0  0  0  0  0  0  0  0  0  0  0
    2.4098    1.1090   -5.5986 H   0  0  0  0  0  0  0  0  0  0  0  0
    0.9459    1.3537   -6.5207 H   0  0  0  0  0  0  0  0  0  0  0  0
    1.1132    2.0768   -4.9388 H   0  0  0  0  0  0  0  0  0  0  0  0
    0.9284   -1.3653   -5.5590 C   0  0  0  0  0  3  0  0  0  0  0  0
    2.3553   -1.5029   -6.0269 C   0  0  0  0  0  3  0  0  0  0  0  0
    2.7395   -0.5109   -6.1427 H   0  0  0  0  0  0  0  0  0  0  0  0
    3.3529   -2.2607   -5.1897 C   0  0  0  0  0  3  0  0  0  0  0  0
    3.9119   -2.9251   -5.8150 H   0  0  0  0  0  0  0  0  0  0  0  0
    4.2580   -1.3219   -4.5487 C   0  0  0  0  0  3  0  0  0  0  0  0
    3.7932   -0.3584   -4.5716 H   0  0  0  0  0  0  0  0  0  0  0  0
    4.5985   -1.5773   -3.2759 C   0  0  0  0  0  3  0  0  0  0  0  0
    3.6891   -1.6077   -2.7129 H   0  0  0  0  0  0  0  0  0  0  0  0
    5.5317   -0.6472   -2.5449 C   0  0  0  0  0  3  0  0  0  0  0  0
    4.9708   -0.3528   -1.1521 O   0  0  0  0  0  0  0  0  0  0  0  0
    4.2525    0.9953   -1.1692 Cu  0  0  0  0  0  0  0  0  0  0  0  0
    5.6965    2.2947   -0.7859 O   0  0  0  0  0  0  0  0  0  0  0  0
    6.5901    1.7411    0.1688 C   0  0  0  0  0  3  0  0  0  0  0  0
    7.1469    0.4666   -0.4673 C   0  0  0  0  0  3  0  0  0  0  0  0
    7.8035   -0.0194    0.2238 H   0  0  0  0  0  0  0  0  0  0  0  0
    5.9930   -0.4731   -0.8211 C   0  0  0  0  0  3  0  0  0  0  0  0
    6.3828   -1.3649   -1.2658 H   0  0  0  0  0  0  0  0  0  0  0  0
    5.2201   -0.8325    0.4490 C   0  0  0  0  0  3  0  0  0  0  0  0
    4.0662   -1.7723    0.0952 C   0  0  0  0  0  3  0  0  0  0  0  0
    4.4560   -2.6640   -0.3494 H   0  0  0  0  0  0  0  0  0  0  0  0
    3.2933   -2.1316    1.3654 C   0  0  0  0  0  3  0  0  0  0  0  0
    3.9498   -2.6176    2.0566 H   0  0  0  0  0  0  0  0  0  0  0  0
    2.7357   -0.8576    2.0018 C   0  0  0  0  0  3  0  0  0  0  0  0
    2.1959   -1.1096    2.8907 H   0  0  0  0  0  0  0  0  0  0  0  0
    3.8904    0.0827    2.3553 C   0  0  0  0  0  3  0  0  0  0  0  0
    4.5469   -0.4031    3.0467 H   0  0  0  0  0  0  0  0  0  0  0  0
    4.6633    0.4420    1.0851 C   0  0  0  0  0  3  0  0  0  0  0  0
    5.8172    1.3818    1.4390 C   0  0  0  0  0  3  0  0  0  0  0  0
  1  2  1  0  0  0  0
  2  3  2  0  0  0  0
  2 47  1  0  0  0  0
  3  4  1  0  0  0  0
  3 30  1  0  0  0  0
  4  5  1  0  0  0  0
  4  6  1  0  0  0  0
  4  7  1  0  0  0  0
  7  8  1  0  0  0  0
  7  9  1  0  0  0  0
  7 10  1  0  0  0  0
 10 11  1  0  0  0  0
 10 12  1  0  0  0  0
 10 13  1  0  0  0  0
 13 14  2  0  0  0  0
 13 30  1  0  0  0  0
 14 15  1  0  0  0  0
 14 19  1  0  0  0  0
 15 16  1  0  0  0  0
 15 17  1  0  0  0  0
 15 18  1  0  0  0  0
 19 20  1  0  0  0  0
 19 28  1  0  0  0  0
 20 21  1  0  0  0  0
 20 22  1  0  0  0  0
 22 23  1  0  0  0  0
 22 24  1  0  0  0  0
 24 25  1  0  0  0  0
 24 26  1  0  0  0  0
 26 27  1  0  0  0  0
 26 28  1  0  0  0  0
 28 29  1  0  0  0  0
 29 30  1  0  0  0  0
 30 31  1  0  0  0  0
 31 32  1  0  0  0  0
 32 33  1  0  0  0  0
 32 47  1  0  0  0  0
 33 34  1  0  0  0  0
 33 35  1  0  0  0  0
 35 36  1  0  0  0  0
 35 37  1  0  0  0  0
 37 38  1  0  0  0  0
 37 46  1  0  0  0  0
 38 39  1  0  0  0  0
 38 40  1  0  0  0  0
 40 41  1  0  0  0  0
 40 42  1  0  0  0  0
 42 43  1  0  0  0  0
 42 44  1  0  0  0  0
 44 45  1  0  0  0  0
 44 46  1  0  0  0  0
 46 47  1  0  0  0  0
M  END
$$$$
