
     RDKit          3D

 35 38  0  0  0  0  0  0  0  0999 V2000
    3.2763    2.0336   -0.9329 C   0  0  0  0  0  0  0  0  0  0  0  0
    1.9231    1.7606   -0.7042 C   0  0  0  0  0  0  0  0  0  0  0  0
    1.4714    0.4585   -0.4280 C   0  0  0  0  0  0  0  0  0  0  0  0
    0.0705    0.1858   -0.1834 N   0  0  0  0  0  0  0  0  0  0  0  0
   -0.4692   -1.0774   -0.4007 C   0  0  0  0  0  0  0  0  0  0  0  0
    0.1181   -2.0333   -0.9057 O   0  0  0  0  0  0  0  0  0  0  0  0
   -1.9230   -1.2609   -0.0471 C   0  0  2  0  0  0  0  0  0  0  0  0
   -2.8864   -0.8286   -1.1713 C   0  0  0  0  0  0  0  0  0  0  0  0
   -3.8753    0.0531   -0.3876 C   0  0  2  0  0  0  0  0  0  0  0  0
   -5.5262    0.2562   -1.3220 Br  0  0  0  0  0  0  0  0  0  0  0  0
   -3.2043    1.3092   -0.1685 O   0  0  0  0  0  0  0  0  0  0  0  0
   -2.1636    1.0307    0.8040 C   0  0  2  0  0  0  0  0  0  0  0  0
   -2.3835    2.1438    2.1846 Cl  0  0  0  0  0  0  0  0  0  0  0  0
   -0.7894    1.3303    0.1607 C   0  0  0  0  0  0  0  0  0  0  0  0
   -2.4147   -0.4439    1.1632 C   0  0  1  0  0  0  0  0  0  0  0  0
   -3.9254   -0.6391    0.9674 C   0  0  1  0  0  0  0  0  0  0  0  0
   -5.2101    0.0798    2.4512 I   0  0  0  0  0  0  0  0  0  0  0  0
    2.4416   -0.5550   -0.3687 C   0  0  0  0  0  0  0  0  0  0  0  0
    3.8094   -0.2957   -0.5879 C   0  0  0  0  0  0  0  0  0  0  0  0
    4.8110   -1.4231   -0.5329 C   0  0  0  0  0  0  0  0  0  0  0  0
    4.5393   -2.3300    0.4468 F   0  0  0  0  0  0  0  0  0  0  0  0
    4.8680   -2.1277   -1.6954 F   0  0  0  0  0  0  0  0  0  0  0  0
    6.0834   -0.9956   -0.2940 F   0  0  0  0  0  0  0  0  0  0  0  0
    4.2154    1.0097   -0.8808 C   0  0  0  0  0  0  0  0  0  0  0  0
    3.5931    3.0494   -1.1592 H   0  0  0  0  0  0  0  0  0  0  0  0
    1.2381    2.5998   -0.7832 H   0  0  0  0  0  0  0  0  0  0  0  0
   -2.0651   -2.3296    0.1688 H   0  0  0  0  0  0  0  0  0  0  0  0
   -2.3806   -0.2778   -1.9727 H   0  0  0  0  0  0  0  0  0  0  0  0
   -3.3659   -1.7132   -1.6070 H   0  0  0  0  0  0  0  0  0  0  0  0
   -0.9404    1.9059   -0.7617 H   0  0  0  0  0  0  0  0  0  0  0  0
   -0.2024    1.9454    0.8542 H   0  0  0  0  0  0  0  0  0  0  0  0
   -1.9855   -0.7738    2.1126 H   0  0  0  0  0  0  0  0  0  0  0  0
   -4.1792   -1.7025    0.8498 H   0  0  0  0  0  0  0  0  0  0  0  0
    2.1664   -1.5779   -0.1183 H   0  0  0  0  0  0  0  0  0  0  0  0
    5.2651    1.2334   -1.0654 H   0  0  0  0  0  0  0  0  0  0  0  0
  1  2  2  0
  2  3  1  0
  3  4  1  0
  4  5  1  0
  5  6  2  0
  5  7  1  0
  7  8  1  0
  8  9  1  0
  9 10  1  6
  9 11  1  0
 11 12  1  0
 12 13  1  1
 12 14  1  0
 12 15  1  0
 15 16  1  0
 16 17  1  0
  3 18  2  0
 18 19  1  0
 19 20  1  0
 20 21  1  0
 20 22  1  0
 20 23  1  0
 19 24  2  0
 24  1  1  0
 14  4  1  0
 15  7  1  0
 16  9  1  0
  1 25  1  0
  2 26  1  0
  7 27  1  1
  8 28  1  0
  8 29  1  0
 14 30  1  0
 14 31  1  0
 15 32  1  1
 16 33  1  6
 18 34  1  0
 24 35  1  0
M  END
