
  --CCDC--092525    3D                              

 49 54  0  0  0  0  0  0  0  0999 V2000
    5.0109    1.5778   -5.5926 H      0
    4.4580    1.2602   -4.7147 C      0
    4.1791   -0.0765   -4.5019 C      0
    4.5343   -0.8224   -5.2053 H      0
    3.4555   -0.4688   -3.3800 C      0
    2.9393    0.4436   -2.4673 C      0
    3.3069    1.7699   -2.6626 C      0
    4.0358    2.1817   -3.7748 C      0
    4.2781    3.2316   -3.9022 H      0
    2.8730    2.6528   -1.5402 C      0
    3.4683    3.5739   -1.5165 H      0
    1.8329    2.9602   -1.6757 H      0
    3.1460    1.6892   -0.0306 P      0
    2.8595    1.6696    1.7681 C      0
    3.0135    0.4847    2.3481 F      0
    1.6436    2.1097    2.0741 F      0
    3.6471    2.5240    2.4135 F      0
    4.9461    1.6333    0.1857 C      0
    5.5831    1.3061   -0.9328 F      0
    5.3832    0.9119    1.2114 F      0
    5.3883    2.8631    0.4295 F      0
    1.6660   -0.1260   -0.8903 Ir     0
    0.1247    1.1757   -1.0286 C      0
    0.3047    2.2293   -0.7921 H      0
   -0.6411    0.9347   -1.7762 H      0
    0.0475    0.3246    0.2113 C      0
    0.7635    0.3458    1.1223 H      0
    0.2639   -1.2399   -0.0597 C      0
    1.4460   -1.5612    0.8439 C      0
    1.7082   -2.6011    0.7560 H      0
    2.2839   -0.9022    0.6580 H      0
    1.1584   -1.4155    1.8835 H      0
    0.2991   -1.5311   -1.5049 C      0
   -0.5455   -1.1242   -2.0746 H      0
    0.7034   -2.4926   -1.8189 H      0
    3.5228   -1.7987   -1.1850 P      0
    4.8250   -1.8444    0.0917 C      0
    4.4038   -1.6048    1.3284 F      0
    5.8261   -1.0442   -0.2218 F      0
    5.5437   -2.9620    0.1367 F      0
    3.2803   -3.5751   -0.8062 C      0
    3.3876   -3.9626    0.4637 F      0
    4.1246   -4.3238   -1.5117 F      0
    2.0974   -4.0350   -1.1859 F      0
    3.1900   -1.8715   -2.9575 C      0
    2.1552   -2.1671   -3.1678 H      0
    3.8560   -2.5810   -3.4638 H      0
    2.5505    2.9041    0.3292 H      0
    4.6824   -1.2953   -1.7866 H      0
  1  2  1
  2  3  4
  3  4  1
  3  5  4
  5  6  4
  6  7  4
  7  8  4
  2  8  4
  8  9  1
  7 10  1
 10 11  1
 10 12  1
 10 13  1
 13 14  1
 14 15  1
 14 16  1
 14 17  1
 13 18  1
 18 19  1
 18 20  1
 18 21  1
 13 22  1
  6 22  1
 22 23  1
 23 24  1
 23 25  1
 23 26  2
 22 26  1
 26 27  1
 26 28  1
 22 28  1
 28 29  1
 29 30  1
 29 31  1
 29 32  1
 28 33  2
 22 33  1
 33 34  1
 33 35  1
 22 36  1
 36 37  1
 37 38  1
 37 39  1
 37 40  1
 36 41  1
 41 42  1
 41 43  1
 41 44  1
 36 45  1
  5 45  1
 45 46  1
 45 47  1
 13 48  1
 36 49  1
M  END
$$$$
