
 OpenBabel09252514043D

 73 85  0  0  0  0  0  0  0  0999 V2000
    1.0673   -0.0727    0.0134 Cl  0  0  0  0  0  0  0  0  0  0  0  0
    3.8373   -0.0727    0.0134 Zr  0  0  0  0  0  0  0  0  0  0  0  0
    4.8400    0.1222   -2.5613 Cl  0  0  0  0  0  0  0  0  0  0  0  0
    2.2298   -1.8542    2.1737 C   0  0  0  0  0  0  0  0  0  0  0  0
    0.4354   -1.1519    0.8620 C   0  0  0  0  0  0  0  0  0  0  0  0
    1.4404   -0.6588    0.0891 C   0  0  0  0  0  0  0  0  0  0  0  0
    0.8563   -1.5225   -0.7799 C   0  0  0  0  0  0  0  0  0  0  0  0
    1.4771   -2.6999   -1.1252 C   0  0  0  0  0  0  0  0  0  0  0  0
    2.4988   -3.1940   -0.3460 C   0  0  0  0  0  0  0  0  0  0  0  0
    3.1428   -2.3936    0.5441 C   0  0  0  0  0  0  0  0  0  0  0  0
    2.7812   -0.9422    0.7045 C   0  0  0  0  0  0  0  0  0  0  0  0
    2.7464   -0.5959    2.1962 C   0  0  0  0  0  0  0  0  0  0  0  0
    2.3811    0.8787    2.3692 Si  0  0  0  0  0  0  0  0  0  0  0  0
    2.3295    1.2988    4.1907 C   0  0  0  0  0  0  0  0  0  0  0  0
    0.7032    1.1987    1.6083 C   0  0  0  0  0  0  0  0  0  0  0  0
    3.4310    1.7490    1.6742 Si  0  0  0  0  0  0  0  0  0  0  0  0
    2.9847    3.5529    1.8833 C   0  0  0  0  0  0  0  0  0  0  0  0
    5.1087    1.4311    2.4365 C   0  0  0  0  0  0  0  0  0  0  0  0
    3.4732    1.4024    0.1847 C   0  0  0  0  0  0  0  0  0  0  0  0
    3.8571    0.0140   -3.7351 C   0  0  0  0  0  3  0  0  0  0  0  0
    3.7640    0.5491   -2.3154 C   0  0  0  0  0  0  0  0  0  0  0  0
    3.3031    1.8095   -2.0924 C   0  0  0  0  0  0  0  0  0  0  0  0
    2.9363    2.5659   -3.1259 C   0  0  0  0  0  0  0  0  0  0  0  0
    2.4836    3.7980   -2.9376 C   0  0  0  0  0  0  0  0  0  0  0  0
    2.3895    4.3129   -1.6275 C   0  0  0  0  0  0  0  0  0  0  0  0
    2.7603    3.5304   -0.5875 C   0  0  0  0  0  0  0  0  0  0  0  0
    3.2250    2.2726   -0.8311 C   0  0  0  0  0  0  0  0  0  0  0  0
    4.2828   -0.5252   -0.8754 Si  0  0  0  0  0  0  0  0  0  0  0  0
    5.6760    0.3074    0.0533 C   0  0  0  0  0  0  0  0  0  0  0  0
    2.8282   -0.7727    0.2735 C   0  0  0  0  0  0  0  0  0  0  0  0
    4.8629   -2.1847   -1.5130 C   0  0  0  0  0  0  0  0  0  0  0  0
    0.2288   -0.5526    2.6213 Si  0  0  0  0  0  0  0  0  0  0  0  0
    1.7779   -0.9355    3.5962 C   0  0  0  0  0  0  0  0  0  0  0  0
   -0.0665    1.2940    2.6201 C   0  0  0  0  0  0  0  0  0  0  0  0
   -1.2317   -1.4169    3.4067 C   0  0  0  0  0  0  0  0  0  0  0  0
   -0.0981   -1.2845   -1.2011 H   0  0  0  0  0  0  0  0  0  0  0  0
    1.1659   -3.2323   -1.9996 H   0  0  0  0  0  0  0  0  0  0  0  0
    2.7892   -4.2193   -0.4421 H   0  0  0  0  0  0  0  0  0  0  0  0
    3.9260   -2.8059    1.1453 H   0  0  0  0  0  0  0  0  0  0  0  0
    2.0739    2.3307    4.3116 H   0  0  0  0  0  0  0  0  0  0  0  0
    1.5955    0.6902    4.6764 H   0  0  0  0  0  0  0  0  0  0  0  0
    3.2895    1.1157    4.6263 H   0  0  0  0  0  0  0  0  0  0  0  0
    0.7325    0.9585    0.5660 H   0  0  0  0  0  0  0  0  0  0  0  0
   -0.0307    0.5901    2.0940 H   0  0  0  0  0  0  0  0  0  0  0  0
    0.4476    2.2306    1.7294 H   0  0  0  0  0  0  0  0  0  0  0  0
    2.9551    3.7945    2.9253 H   0  0  0  0  0  0  0  0  0  0  0  0
    3.7189    4.1607    1.3970 H   0  0  0  0  0  0  0  0  0  0  0  0
    2.0248    3.7357    1.4474 H   0  0  0  0  0  0  0  0  0  0  0  0
    5.3646    0.3989    2.3178 H   0  0  0  0  0  0  0  0  0  0  0  0
    5.8426    2.0388    1.9497 H   0  0  0  0  0  0  0  0  0  0  0  0
    5.0789    1.6736    3.4782 H   0  0  0  0  0  0  0  0  0  0  0  0
    3.0078    2.1748   -4.1193 H   0  0  0  0  0  0  0  0  0  0  0  0
    2.1915    4.3979   -3.7741 H   0  0  0  0  0  0  0  0  0  0  0  0
    2.0305    5.3066   -1.4588 H   0  0  0  0  0  0  0  0  0  0  0  0
    2.6893    3.8955    0.4157 H   0  0  0  0  0  0  0  0  0  0  0  0
    5.3440    1.2570    0.4181 H   0  0  0  0  0  0  0  0  0  0  0  0
    5.9728   -0.3073    0.8773 H   0  0  0  0  0  0  0  0  0  0  0  0
    6.5083    0.4490   -0.6041 H   0  0  0  0  0  0  0  0  0  0  0  0
    2.0310   -1.2492   -0.2579 H   0  0  0  0  0  0  0  0  0  0  0  0
    3.1251   -1.3874    1.0974 H   0  0  0  0  0  0  0  0  0  0  0  0
    2.4963    0.1768    0.6383 H   0  0  0  0  0  0  0  0  0  0  0  0
    4.0657   -2.6611   -2.0444 H   0  0  0  0  0  0  0  0  0  0  0  0
    5.6952   -2.0431   -2.1704 H   0  0  0  0  0  0  0  0  0  0  0  0
    5.1598   -2.7994   -0.6890 H   0  0  0  0  0  0  0  0  0  0  0  0
    2.6136   -0.4410    3.1468 H   0  0  0  0  0  0  0  0  0  0  0  0
    1.6597   -0.5926    4.6029 H   0  0  0  0  0  0  0  0  0  0  0  0
    1.9468   -1.9921    3.5969 H   0  0  0  0  0  0  0  0  0  0  0  0
   -0.9529    1.5131    2.0623 H   0  0  0  0  0  0  0  0  0  0  0  0
   -0.1847    1.6369    3.6268 H   0  0  0  0  0  0  0  0  0  0  0  0
    0.7692    1.7885    2.1707 H   0  0  0  0  0  0  0  0  0  0  0  0
   -2.1181   -1.1977    2.8489 H   0  0  0  0  0  0  0  0  0  0  0  0
   -1.0627   -2.4734    3.4074 H   0  0  0  0  0  0  0  0  0  0  0  0
   -1.3499   -1.0739    4.4134 H   0  0  0  0  0  0  0  0  0  0  0  0
  1  2  1  0  0  0  0
  2  3  1  0  0  0  0
  2  4  1  0  0  0  0
  2  5  1  0  0  0  0
  2  6  1  0  0  0  0
  2 11  1  0  0  0  0
  2 12  1  0  0  0  0
  2 19  1  0  0  0  0
  2 20  1  0  0  0  0
  2 21  1  0  0  0  0
  2 22  1  0  0  0  0
  2 27  1  0  0  0  0
  4  5  1  0  0  0  0
  4 12  2  0  0  0  0
  5  6  2  0  0  0  0
  5 32  1  0  0  0  0
  6  7  1  0  0  0  0
  6 11  1  0  0  0  0
  7  8  2  0  0  0  0
  7 36  1  0  0  0  0
  8  9  1  0  0  0  0
  8 37  1  0  0  0  0
  9 10  2  0  0  0  0
  9 38  1  0  0  0  0
 10 11  1  0  0  0  0
 10 39  1  0  0  0  0
 11 12  1  0  0  0  0
 12 13  1  0  0  0  0
 13 14  1  0  0  0  0
 13 15  1  0  0  0  0
 13 16  1  0  0  0  0
 14 40  1  0  0  0  0
 14 41  1  0  0  0  0
 14 42  1  0  0  0  0
 15 43  1  0  0  0  0
 15 44  1  0  0  0  0
 15 45  1  0  0  0  0
 16 17  1  0  0  0  0
 16 18  1  0  0  0  0
 16 19  1  0  0  0  0
 17 46  1  0  0  0  0
 17 47  1  0  0  0  0
 17 48  1  0  0  0  0
 18 49  1  0  0  0  0
 18 50  1  0  0  0  0
 18 51  1  0  0  0  0
 19 20  1  0  0  0  0
 19 27  2  0  0  0  0
 20 21  1  0  0  0  0
 21 22  2  0  0  0  0
 21 28  1  0  0  0  0
 22 23  1  0  0  0  0
 22 27  1  0  0  0  0
 23 24  2  0  0  0  0
 23 52  1  0  0  0  0
 24 25  1  0  0  0  0
 24 53  1  0  0  0  0
 25 26  2  0  0  0  0
 25 54  1  0  0  0  0
 26 27  1  0  0  0  0
 26 55  1  0  0  0  0
 28 29  1  0  0  0  0
 28 30  1  0  0  0  0
 28 31  1  0  0  0  0
 29 56  1  0  0  0  0
 29 57  1  0  0  0  0
 29 58  1  0  0  0  0
 30 59  1  0  0  0  0
 30 60  1  0  0  0  0
 30 61  1  0  0  0  0
 31 62  1  0  0  0  0
 31 63  1  0  0  0  0
 31 64  1  0  0  0  0
 32 33  1  0  0  0  0
 32 34  1  0  0  0  0
 32 35  1  0  0  0  0
 33 65  1  0  0  0  0
 33 66  1  0  0  0  0
 33 67  1  0  0  0  0
 34 68  1  0  0  0  0
 34 69  1  0  0  0  0
 34 70  1  0  0  0  0
 35 71  1  0  0  0  0
 35 72  1  0  0  0  0
 35 73  1  0  0  0  0
M  END
$$$$
