
  --CCDC--092525    3D                              

 64 65  0  0  0  0  0  0  0  0999 V2000
   -0.0457    0.3469   -0.5183 H      0
    0.5973    0.8234    0.2203 C      0
    0.8718    0.0979    0.9846 H      0
   -0.1991    1.9146    0.8873 C      0
   -1.3594    2.3016    0.4055 N      0
   -1.7842    3.3439    1.1495 N      0
   -3.0191    3.8973    0.9819 O      0
   -3.4366    2.5788    1.4075 C      0
   -3.5425    1.7977    0.6639 H      0
   -4.4171    2.5478    1.8664 H      0
   -2.7467    2.1143    2.1004 H      0
   -4.3889    4.2759    0.7545 C      0
   -4.9172    3.5367    0.1538 H      0
   -4.5194    5.2474    0.2897 H      0
   -5.0693    4.2817    1.5873 H      0
   -3.1206    3.5340   -0.4265 C      0
   -3.7780    4.1633   -1.0169 H      0
   -2.2086    3.5483   -1.0001 H      0
   -3.5049    2.5497   -0.6663 H      0
   -3.2820    4.4147    2.5881 P      0
   -4.4191    5.8211    2.8731 C      0
   -5.0034    6.1703    2.0257 H      0
   -3.8801    6.6735    3.2775 H      0
   -5.1349    5.5353    3.6410 H      0
   -2.9753    3.1534    3.8735 C      0
   -3.7449    2.3833    3.8846 H      0
   -3.0109    3.6309    4.8505 H      0
   -2.0104    2.6604    3.8044 H      0
   -2.0678    5.3194    3.6087 C      0
   -1.3417    4.6598    4.0779 H      0
   -2.6021    5.7868    4.4332 H      0
   -1.5287    6.1158    3.1124 H      0
   -2.2176    5.2744    0.4319 P      0
   -2.5955    5.9039   -1.2377 C      0
   -3.6609    6.0951   -1.3493 H      0
   -2.2834    5.2213   -2.0263 H      0
   -2.0716    6.8391   -1.4215 H      0
   -2.8354    6.9175    0.9043 C      0
   -2.3301    7.6680    0.3013 H      0
   -2.6060    7.1961    1.9240 H      0
   -3.8965    7.0449    0.7108 H      0
   -0.5406    4.9997   -0.2424 C      0
   -0.4145    4.0763   -0.7997 H      0
    0.2259    5.0311    0.5269 H      0
   -0.3036    5.8117   -0.9267 H      0
   -0.8837    3.6057    2.0981 N      0
    0.1067    2.7492    1.9715 C      0
    1.3196    2.8200    2.8425 C      0
    1.6536    1.8054    3.0543 H      0
    1.0485    3.3148    3.7740 H      0
    2.4697    3.5848    2.2055 C      0
    3.3774    3.3253    2.7483 H      0
    2.2651    4.6474    2.3273 H      0
    2.7292    3.3356    0.7372 C      0
    3.6070    3.9131    0.4510 H      0
    1.8635    3.6910    0.1805 H      0
    2.9783    1.8689    0.3366 C      0
    3.0926    1.2808    1.2460 H      0
    3.8994    1.8244   -0.2427 H      0
    1.8721    1.2582   -0.4860 C      0
    1.5882    1.9925   -1.2384 H      0
    2.2846    0.3774   -0.9758 H      0
   -4.4444    3.8383    3.1203 H      0
   -1.2689    5.7551    1.3307 H      0
  1  2  1
  2  3  1
  2  4  1
  4  5  2
  5  6  1
  6  7  1
  7  8  1
  8  9  1
  8 10  1
  8 11  1
  7 12  1
 12 13  1
 12 14  1
 12 15  1
  7 16  1
 16 17  1
 16 18  1
 16 19  1
  7 20  1
 20 21  1
 21 22  1
 21 23  1
 21 24  1
 20 25  1
 25 26  1
 25 27  1
 25 28  1
 20 29  1
 29 30  1
 29 31  1
 29 32  1
  7 33  1
 33 34  1
 34 35  1
 34 36  1
 34 37  1
 33 38  1
 38 39  1
 38 40  1
 38 41  1
 33 42  1
 42 43  1
 42 44  1
 42 45  1
  6 46  1
 46 47  2
  4 47  1
 47 48  1
 48 49  1
 48 50  1
 48 51  1
 51 52  1
 51 53  1
 51 54  1
 54 55  1
 54 56  1
 54 57  1
 57 58  1
 57 59  1
 57 60  1
  2 60  1
 60 61  1
 60 62  1
 20 63  1
 33 64  1
M  END
$$$$
