
     RDKit          3D

 64 65  0  0  0  0  0  0  0  0999 V2000
    3.3161   -1.7523    0.4851 C   0  0  0  0  0  0  0  0  0  0  0  0
    2.1994   -0.8866    0.0222 C   0  0  0  0  0  0  0  0  0  0  0  0
    1.0905   -0.8305    0.7536 N   0  0  0  0  0  0  0  0  0  0  0  0
    0.1792   -0.0115    0.2093 N   0  0  0  0  0  0  0  0  0  0  0  0
   -1.5035    0.3975    0.9786 Pt  0  0  0  0  0  6  0  0  0  0  0  0
   -0.5858    1.9266    1.6370 C   0  0  0  0  0  0  0  0  0  0  0  0
   -0.8316   -0.4118    2.6172 C   0  0  0  0  0  0  0  0  0  0  0  0
   -2.8995    1.0375    2.0554 C   0  0  0  0  0  0  0  0  0  0  0  0
   -1.9693    1.3830   -0.6002 P   0  0  0  0  0  5  0  0  0  0  0  0
   -0.9114    2.8079   -0.9556 C   0  0  0  0  0  0  0  0  0  0  0  0
   -3.7377    1.5311   -0.7742 C   0  0  0  0  0  0  0  0  0  0  0  0
   -1.5049    0.4233   -2.0657 C   0  0  0  0  0  0  0  0  0  0  0  0
   -2.3264   -1.2524    0.5867 P   0  0  0  0  0  5  0  0  0  0  0  0
   -3.2105   -2.0004    2.0351 C   0  0  0  0  0  0  0  0  0  0  0  0
   -0.9095   -2.4382    0.6714 C   0  0  0  0  0  0  0  0  0  0  0  0
   -2.8598   -1.8295   -0.9469 C   0  0  0  0  0  0  0  0  0  0  0  0
    0.7113    0.4729   -0.8996 N   0  0  0  0  0  0  0  0  0  0  0  0
    1.9355   -0.0441   -1.0326 C   0  0  0  0  0  0  0  0  0  0  0  0
    2.7412    0.3567   -2.2165 C   0  0  0  0  0  0  0  0  0  0  0  0
    3.8915    1.2337   -1.8586 C   0  0  0  0  0  0  0  0  0  0  0  0
    5.1640    0.5612   -1.5140 C   0  0  0  0  0  0  0  0  0  0  0  0
    5.0785   -0.8484   -1.0381 C   0  0  0  0  0  0  0  0  0  0  0  0
    4.6502   -1.0033    0.3988 C   0  0  0  0  0  0  0  0  0  0  0  0
    3.3574   -2.7156   -0.0481 H   0  0  0  0  0  0  0  0  0  0  0  0
    3.1405   -1.9646    1.5596 H   0  0  0  0  0  0  0  0  0  0  0  0
   -0.5311    1.9337    2.7599 H   0  0  0  0  0  0  0  0  0  0  0  0
   -1.2669    2.7944    1.4523 H   0  0  0  0  0  0  0  0  0  0  0  0
    0.4310    2.0179    1.3083 H   0  0  0  0  0  0  0  0  0  0  0  0
   -0.9090    0.4228    3.3896 H   0  0  0  0  0  0  0  0  0  0  0  0
   -1.4997   -1.1586    2.9813 H   0  0  0  0  0  0  0  0  0  0  0  0
    0.2283   -0.5965    2.5390 H   0  0  0  0  0  0  0  0  0  0  0  0
   -3.7629    0.4274    1.8056 H   0  0  0  0  0  0  0  0  0  0  0  0
   -3.0104    2.1138    1.7971 H   0  0  0  0  0  0  0  0  0  0  0  0
   -2.6758    0.9670    3.1089 H   0  0  0  0  0  0  0  0  0  0  0  0
   -2.3289    2.3640    0.2011 H   0  0  0  0  0  0  0  0  0  0  0  0
   -0.2091    3.1828   -0.2155 H   0  0  0  0  0  0  0  0  0  0  0  0
   -0.0989    2.5616   -1.7423 H   0  0  0  0  0  0  0  0  0  0  0  0
   -1.4018    3.5900   -1.5894 H   0  0  0  0  0  0  0  0  0  0  0  0
   -4.0802    0.8028   -1.5836 H   0  0  0  0  0  0  0  0  0  0  0  0
   -4.4060    1.2018    0.0323 H   0  0  0  0  0  0  0  0  0  0  0  0
   -4.1108    2.4672   -1.3073 H   0  0  0  0  0  0  0  0  0  0  0  0
   -2.3552    0.4349   -2.7640 H   0  0  0  0  0  0  0  0  0  0  0  0
   -1.1131   -0.4729   -1.6912 H   0  0  0  0  0  0  0  0  0  0  0  0
   -0.7048    0.9061   -2.6722 H   0  0  0  0  0  0  0  0  0  0  0  0
   -3.5115   -0.6045    0.4933 H   0  0  0  0  0  0  0  0  0  0  0  0
   -2.6169   -2.7666    2.5832 H   0  0  0  0  0  0  0  0  0  0  0  0
   -3.5059   -1.3098    2.8181 H   0  0  0  0  0  0  0  0  0  0  0  0
   -4.0766   -2.6268    1.7013 H   0  0  0  0  0  0  0  0  0  0  0  0
   -1.4156   -3.4373    0.6443 H   0  0  0  0  0  0  0  0  0  0  0  0
   -0.5184   -2.2137    1.6402 H   0  0  0  0  0  0  0  0  0  0  0  0
   -0.3671   -2.2091   -0.2278 H   0  0  0  0  0  0  0  0  0  0  0  0
   -3.3809   -1.3629   -1.7654 H   0  0  0  0  0  0  0  0  0  0  0  0
   -3.5712   -2.7083   -0.6698 H   0  0  0  0  0  0  0  0  0  0  0  0
   -2.1516   -2.4870   -1.5800 H   0  0  0  0  0  0  0  0  0  0  0  0
    3.0491   -0.5879   -2.7256 H   0  0  0  0  0  0  0  0  0  0  0  0
    2.0512    0.8555   -2.9256 H   0  0  0  0  0  0  0  0  0  0  0  0
    3.5401    1.9571   -1.0737 H   0  0  0  0  0  0  0  0  0  0  0  0
    4.0604    1.9006   -2.7529 H   0  0  0  0  0  0  0  0  0  0  0  0
    5.6653    1.1300   -0.6764 H   0  0  0  0  0  0  0  0  0  0  0  0
    5.8334    0.5494   -2.4156 H   0  0  0  0  0  0  0  0  0  0  0  0
    6.1424   -1.2317   -1.0559 H   0  0  0  0  0  0  0  0  0  0  0  0
    4.5454   -1.5394   -1.7188 H   0  0  0  0  0  0  0  0  0  0  0  0
    4.4329    0.0340    0.7762 H   0  0  0  0  0  0  0  0  0  0  0  0
    5.3954   -1.4443    1.0607 H   0  0  0  0  0  0  0  0  0  0  0  0
  1  2  1  0
  2  3  2  0
  3  4  1  0
  4  5  1  0
  5  6  1  0
  5  7  1  0
  5  8  1  0
  5  9  1  0
  9 10  1  0
  9 11  1  0
  9 12  1  0
  5 13  1  0
 13 14  1  0
 13 15  1  0
 13 16  1  0
  4 17  1  0
 17 18  2  0
 18 19  1  0
 19 20  1  0
 20 21  1  0
 21 22  1  0
 22 23  1  0
 23  1  1  0
 18  2  1  0
  1 24  1  0
  1 25  1  0
  6 26  1  0
  6 27  1  0
  6 28  1  0
  7 29  1  0
  7 30  1  0
  7 31  1  0
  8 32  1  0
  8 33  1  0
  8 34  1  0
  9 35  1  0
 10 36  1  0
 10 37  1  0
 10 38  1  0
 11 39  1  0
 11 40  1  0
 11 41  1  0
 12 42  1  0
 12 43  1  0
 12 44  1  0
 13 45  1  0
 14 46  1  0
 14 47  1  0
 14 48  1  0
 15 49  1  0
 15 50  1  0
 15 51  1  0
 16 52  1  0
 16 53  1  0
 16 54  1  0
 19 55  1  0
 19 56  1  0
 20 57  1  0
 20 58  1  0
 21 59  1  0
 21 60  1  0
 22 61  1  0
 22 62  1  0
 23 63  1  0
 23 64  1  0
M  END
