
 OpenBabel09252519353D

 26 26  0  0  0  0  0  0  0  0999 V2000
    1.0583   -0.0359   -0.1590 C   0  0  0  0  0  0  0  0  0  0  0  0
    0.4445   -1.3055   -0.7418 C   0  0  0  0  0  0  0  0  0  0  0  0
    1.0975   -2.5803   -0.2216 C   0  0  0  0  0  0  0  0  0  0  0  0
   -0.9929   -1.3564   -0.5984 O   0  0  0  0  0  0  0  0  0  0  0  0
   -1.5445   -1.3100    0.6361 C   0  0  0  0  0  0  0  0  0  0  0  0
   -0.9653   -1.1931    1.7023 O   0  0  0  0  0  0  0  0  0  0  0  0
   -3.0227   -1.3754    0.5245 C   0  0  0  0  0  0  0  0  0  0  0  0
   -3.7921   -0.7662    1.5263 C   0  0  0  0  0  0  0  0  0  0  0  0
   -5.1882   -0.8204    1.4746 C   0  0  0  0  0  0  0  0  0  0  0  0
   -5.8137   -1.5011    0.4210 C   0  0  0  0  0  0  0  0  0  0  0  0
   -5.0518   -2.1197   -0.5809 C   0  0  0  0  0  0  0  0  0  0  0  0
   -3.6554   -2.0531   -0.5279 C   0  0  0  0  0  0  0  0  0  0  0  0
   -7.2800   -1.5733    0.3701 N   0  0  0  0  0  0  0  0  0  0  0  0
   -7.9173   -0.9687    1.2438 O   0  0  0  0  0  0  0  0  0  0  0  0
   -7.7920   -2.2350   -0.5440 O   0  0  0  0  0  0  0  0  0  0  0  0
    1.0449   -0.0353    0.9349 H   0  0  0  0  0  0  0  0  0  0  0  0
    0.5033    0.8479   -0.4899 H   0  0  0  0  0  0  0  0  0  0  0  0
    2.1022    0.0673   -0.4724 H   0  0  0  0  0  0  0  0  0  0  0  0
    0.6117   -1.2719   -1.8251 H   0  0  0  0  0  0  0  0  0  0  0  0
    0.9792   -2.6865    0.8609 H   0  0  0  0  0  0  0  0  0  0  0  0
    0.6313   -3.4592   -0.6799 H   0  0  0  0  0  0  0  0  0  0  0  0
    2.1676   -2.5938   -0.4508 H   0  0  0  0  0  0  0  0  0  0  0  0
   -3.3034   -0.2456    2.3492 H   0  0  0  0  0  0  0  0  0  0  0  0
   -5.7663   -0.3361    2.2596 H   0  0  0  0  0  0  0  0  0  0  0  0
   -5.5258   -2.6573   -1.4005 H   0  0  0  0  0  0  0  0  0  0  0  0
   -3.0693   -2.5444   -1.3022 H   0  0  0  0  0  0  0  0  0  0  0  0
  1  2  1  0  0  0  0
  1 16  1  0  0  0  0
  1 17  1  0  0  0  0
  1 18  1  0  0  0  0
  2  3  1  0  0  0  0
  2  4  1  0  0  0  0
  2 19  1  0  0  0  0
  3 20  1  0  0  0  0
  3 21  1  0  0  0  0
  3 22  1  0  0  0  0
  4  5  1  0  0  0  0
  5  6  2  0  0  0  0
  5  7  1  0  0  0  0
  7  8  1  0  0  0  0
  7 12  2  0  0  0  0
  8  9  2  0  0  0  0
  8 23  1  0  0  0  0
  9 10  1  0  0  0  0
  9 24  1  0  0  0  0
 10 11  2  0  0  0  0
 10 13  1  0  0  0  0
 11 12  1  0  0  0  0
 11 25  1  0  0  0  0
 12 26  1  0  0  0  0
 13 14  2  0  0  0  0
 13 15  2  0  0  0  0
M  END
$$$$
