
 OpenBabel09252514513D

 43 45  0  0  0  0  0  0  0  0999 V2000
    1.0448   -0.0865    0.0226 C   0  0  0  0  0  0  0  0  0  0  0  0
    0.5382   -0.4728    1.4026 C   0  0  0  0  0  0  0  0  0  0  0  0
    1.0282    0.4963    2.3934 N   0  0  0  0  0  4  0  0  0  0  0  0
    0.3382    2.3869    1.9093 Pt  0  0  0  0  0  0  0  0  0  0  0  0
   -0.7752    2.2007    2.9157 N   0  0  0  0  0  4  0  0  0  0  0  0
   -0.7573    3.8383    3.7430 C   0  0  0  0  0  0  0  0  0  0  0  0
   -2.0719    4.6013    3.7493 C   0  0  0  0  0  0  0  0  0  0  0  0
    0.5691    4.5658    2.8040 C   0  0  0  0  0  0  0  0  0  0  0  0
    1.1177    5.7303    2.8613 C   0  0  0  0  0  0  0  0  0  0  0  0
    2.1717    6.0666    2.0003 C   0  0  0  0  0  0  0  0  0  0  0  0
    2.6081    5.1129    1.0661 C   0  0  0  0  0  0  0  0  0  0  0  0
    2.0336    3.9109    1.0151 C   0  0  0  0  0  0  0  0  0  0  0  0
    0.9672    3.5731    1.8981 C   0  0  0  0  0  0  0  0  0  0  0  0
    0.1883    2.7364   -0.1255 N   0  0  0  0  0  0  0  0  0  0  0  0
   -0.2384    3.9014   -0.5631 C   0  0  0  0  0  0  0  0  0  0  0  0
   -0.6507    5.0268   -0.9859 O   0  0  0  0  0  0  0  0  0  0  0  0
   -0.9818   -0.4728    1.4026 C   0  0  0  0  0  0  0  0  0  0  0  0
   -1.7056   -1.6951    1.4818 C   0  0  0  0  0  0  0  0  0  0  0  0
   -3.0779   -1.7039    1.1830 C   0  0  0  0  0  0  0  0  0  0  0  0
   -3.7341   -0.5837    1.1052 C   0  0  0  0  0  0  0  0  0  0  0  0
   -3.0760    0.6329    1.3297 C   0  0  0  0  0  0  0  0  0  0  0  0
   -1.6605    0.6734    1.3283 C   0  0  0  0  0  0  0  0  0  0  0  0
    0.6882    0.8908   -0.2277 H   0  0  0  0  0  0  0  0  0  0  0  0
    0.6882   -0.7918   -0.6987 H   0  0  0  0  0  0  0  0  0  0  0  0
    2.1148   -0.0865    0.0226 H   0  0  0  0  0  0  0  0  0  0  0  0
    0.8948   -1.4500    1.6528 H   0  0  0  0  0  0  0  0  0  0  0  0
    0.6882    0.2371    3.3195 H   0  0  0  0  0  0  0  0  0  0  0  0
    2.0482    0.4963    2.3934 H   0  0  0  0  0  0  0  0  0  0  0  0
   -1.6742    1.9392    2.5109 H   0  0  0  0  0  0  0  0  0  0  0  0
   -0.5687    1.4461    3.5701 H   0  0  0  0  0  0  0  0  0  0  0  0
   -0.5250    3.7648    4.7849 H   0  0  0  0  0  0  0  0  0  0  0  0
   -2.8035    4.0467    4.2988 H   0  0  0  0  0  0  0  0  0  0  0  0
   -1.9279    5.5562    4.2101 H   0  0  0  0  0  0  0  0  0  0  0  0
   -2.4097    4.7381    2.7432 H   0  0  0  0  0  0  0  0  0  0  0  0
    0.7653    6.4475    3.5728 H   0  0  0  0  0  0  0  0  0  0  0  0
    2.6343    7.0300    2.0537 H   0  0  0  0  0  0  0  0  0  0  0  0
    3.4046    5.3519    0.3928 H   0  0  0  0  0  0  0  0  0  0  0  0
    2.3775    3.1908    0.3023 H   0  0  0  0  0  0  0  0  0  0  0  0
   -1.2090   -2.5992    1.7663 H   0  0  0  0  0  0  0  0  0  0  0  0
   -3.5836   -2.6325    1.0193 H   0  0  0  0  0  0  0  0  0  0  0  0
   -4.7778   -0.5911    0.8695 H   0  0  0  0  0  0  0  0  0  0  0  0
   -3.6398    1.5260    1.5012 H   0  0  0  0  0  0  0  0  0  0  0  0
   -1.1435    1.6084    1.2687 H   0  0  0  0  0  0  0  0  0  0  0  0
  1  2  1  0  0  0  0
  1 23  1  0  0  0  0
  1 24  1  0  0  0  0
  1 25  1  0  0  0  0
  2  3  1  0  0  0  0
  2 17  1  0  0  0  0
  2 26  1  0  0  0  0
  3  4  1  0  0  0  0
  3 27  1  0  0  0  0
  3 28  1  0  0  0  0
  4  5  1  0  0  0  0
  4 13  1  0  0  0  0
  4 14  1  0  0  0  0
  5  6  1  0  0  0  0
  5 29  1  0  0  0  0
  5 30  1  0  0  0  0
  6  7  1  0  0  0  0
  6  8  1  0  0  0  0
  6 31  1  0  0  0  0
  7 32  1  0  0  0  0
  7 33  1  0  0  0  0
  7 34  1  0  0  0  0
  8  9  1  0  0  0  0
  8 13  2  0  0  0  0
  9 10  2  0  0  0  0
  9 35  1  0  0  0  0
 10 11  1  0  0  0  0
 10 36  1  0  0  0  0
 11 12  2  0  0  0  0
 11 37  1  0  0  0  0
 12 13  1  0  0  0  0
 12 38  1  0  0  0  0
 14 15  2  0  0  0  0
 15 16  2  0  0  0  0
 17 18  1  0  0  0  0
 17 22  2  0  0  0  0
 18 19  2  0  0  0  0
 18 39  1  0  0  0  0
 19 20  1  0  0  0  0
 19 40  1  0  0  0  0
 20 21  2  0  0  0  0
 20 41  1  0  0  0  0
 21 22  1  0  0  0  0
 21 42  1  0  0  0  0
 22 43  1  0  0  0  0
M  END
$$$$
