
 OpenBabel09252516253D

 62 63  0  0  0  0  0  0  0  0999 V2000
    1.0116    0.0722    0.0682 C   0  0  0  0  0  0  0  0  0  0  0  0
    0.3050   -0.1727   -1.9155 Pt  0  0  0  0  0  0  0  0  0  0  0  0
    2.0359   -1.2997   -2.3930 C   0  0  0  0  0  0  0  0  0  0  0  0
   -0.6944   -1.9516   -1.3399 C   0  0  0  0  0  0  0  0  0  0  0  0
   -0.3851   -0.4118   -3.8524 N   0  0  0  0  0  0  0  0  0  0  0  0
   -0.1826   -1.7762   -4.8981 N   0  0  0  0  0  0  0  0  0  0  0  0
   -1.0476   -1.1703   -6.3229 C   0  0  0  0  0  0  0  0  0  0  0  0
   -1.2870   -1.9278   -7.5992 C   0  0  0  0  0  0  0  0  0  0  0  0
   -2.7377   -2.4422   -7.5572 C   0  0  0  0  0  0  0  0  0  0  0  0
   -3.6620   -1.2478   -7.2962 C   0  0  0  0  0  0  0  0  0  0  0  0
   -3.4692   -0.3182   -8.4758 C   0  0  0  0  0  0  0  0  0  0  0  0
   -2.2609    0.5914   -8.3510 C   0  0  0  0  0  0  0  0  0  0  0  0
   -2.0795    1.1117   -6.9314 C   0  0  0  0  0  0  0  0  0  0  0  0
   -1.4307    0.0810   -6.0094 C   0  0  0  0  0  0  0  0  0  0  0  0
   -1.0952    0.4779   -4.6367 N   0  0  0  0  0  0  0  0  0  0  0  0
   -1.6791    1.1191   -1.3682 P   0  0  0  0  0  4  0  0  0  0  0  0
   -1.2725    2.3398   -0.0669 C   0  0  0  0  0  0  0  0  0  0  0  0
   -2.2686    1.9946   -2.8631 C   0  0  0  0  0  0  0  0  0  0  0  0
   -2.9905   -0.0043   -0.7623 C   0  0  0  0  0  0  0  0  0  0  0  0
    1.4505    1.8663   -2.5753 P   0  0  0  0  0  4  0  0  0  0  0  0
    0.8056    3.2721   -1.5972 C   0  0  0  0  0  0  0  0  0  0  0  0
    3.2456    1.6834   -2.2703 C   0  0  0  0  0  0  0  0  0  0  0  0
    1.1629    2.1788   -4.3553 C   0  0  0  0  0  0  0  0  0  0  0  0
    0.6550   -0.7331    0.6759 H   0  0  0  0  0  0  0  0  0  0  0  0
    0.6550    1.0011    0.4618 H   0  0  0  0  0  0  0  0  0  0  0  0
    2.0816    0.0722    0.0682 H   0  0  0  0  0  0  0  0  0  0  0  0
    2.3806   -1.8116   -1.5189 H   0  0  0  0  0  0  0  0  0  0  0  0
    1.7981   -2.0135   -3.1538 H   0  0  0  0  0  0  0  0  0  0  0  0
    2.8027   -0.6428   -2.7472 H   0  0  0  0  0  0  0  0  0  0  0  0
   -1.7440   -1.8447   -1.5182 H   0  0  0  0  0  0  0  0  0  0  0  0
   -0.3174   -2.7735   -1.9118 H   0  0  0  0  0  0  0  0  0  0  0  0
   -0.5263   -2.1343   -0.2991 H   0  0  0  0  0  0  0  0  0  0  0  0
   -1.1316   -1.2979   -8.4501 H   0  0  0  0  0  0  0  0  0  0  0  0
   -0.6078   -2.7516   -7.6697 H   0  0  0  0  0  0  0  0  0  0  0  0
   -2.8488   -3.1717   -6.7824 H   0  0  0  0  0  0  0  0  0  0  0  0
   -2.9882   -2.8962   -8.4931 H   0  0  0  0  0  0  0  0  0  0  0  0
   -3.4324   -0.7645   -6.3695 H   0  0  0  0  0  0  0  0  0  0  0  0
   -4.6807   -1.5698   -7.2370 H   0  0  0  0  0  0  0  0  0  0  0  0
   -3.3057   -0.9357   -9.3343 H   0  0  0  0  0  0  0  0  0  0  0  0
   -4.3425    0.2928   -8.5695 H   0  0  0  0  0  0  0  0  0  0  0  0
   -1.3919    0.0218   -8.6066 H   0  0  0  0  0  0  0  0  0  0  0  0
   -2.3868    1.4247   -9.0104 H   0  0  0  0  0  0  0  0  0  0  0  0
   -1.4308    1.9614   -6.9768 H   0  0  0  0  0  0  0  0  0  0  0  0
   -3.0393    1.3704   -6.5355 H   0  0  0  0  0  0  0  0  0  0  0  0
   -0.5057    2.9967   -0.4211 H   0  0  0  0  0  0  0  0  0  0  0  0
   -2.1461    2.9086    0.1741 H   0  0  0  0  0  0  0  0  0  0  0  0
   -0.9278    1.8279    0.8072 H   0  0  0  0  0  0  0  0  0  0  0  0
   -2.5064    1.2809   -3.6240 H   0  0  0  0  0  0  0  0  0  0  0  0
   -3.1422    2.5634   -2.6221 H   0  0  0  0  0  0  0  0  0  0  0  0
   -1.5018    2.6515   -3.2174 H   0  0  0  0  0  0  0  0  0  0  0  0
   -3.2283   -0.7181   -1.5231 H   0  0  0  0  0  0  0  0  0  0  0  0
   -2.6459   -0.5162    0.1118 H   0  0  0  0  0  0  0  0  0  0  0  0
   -3.8642    0.5645   -0.5213 H   0  0  0  0  0  0  0  0  0  0  0  0
    0.9737    3.0893   -0.5564 H   0  0  0  0  0  0  0  0  0  0  0  0
    1.3100    4.1699   -1.8877 H   0  0  0  0  0  0  0  0  0  0  0  0
   -0.2440    3.3790   -1.7755 H   0  0  0  0  0  0  0  0  0  0  0  0
    3.6226    0.8615   -2.8422 H   0  0  0  0  0  0  0  0  0  0  0  0
    3.7500    2.5812   -2.5608 H   0  0  0  0  0  0  0  0  0  0  0  0
    3.4137    1.5007   -1.2295 H   0  0  0  0  0  0  0  0  0  0  0  0
    1.5400    1.3568   -4.9272 H   0  0  0  0  0  0  0  0  0  0  0  0
    0.1133    2.2857   -4.5337 H   0  0  0  0  0  0  0  0  0  0  0  0
    1.6673    3.0766   -4.6459 H   0  0  0  0  0  0  0  0  0  0  0  0
  1  2  1  0  0  0  0
  1 24  1  0  0  0  0
  1 25  1  0  0  0  0
  1 26  1  0  0  0  0
  2  3  1  0  0  0  0
  2  4  1  0  0  0  0
  2  5  1  0  0  0  0
  2 16  1  0  0  0  0
  2 20  1  0  0  0  0
  3 27  1  0  0  0  0
  3 28  1  0  0  0  0
  3 29  1  0  0  0  0
  4 30  1  0  0  0  0
  4 31  1  0  0  0  0
  4 32  1  0  0  0  0
  5  6  1  0  0  0  0
  5 15  1  0  0  0  0
  6  7  2  0  0  0  0
  7  8  1  0  0  0  0
  7 14  1  0  0  0  0
  8  9  1  0  0  0  0
  8 33  1  0  0  0  0
  8 34  1  0  0  0  0
  9 10  1  0  0  0  0
  9 35  1  0  0  0  0
  9 36  1  0  0  0  0
 10 11  1  0  0  0  0
 10 37  1  0  0  0  0
 10 38  1  0  0  0  0
 11 12  1  0  0  0  0
 11 39  1  0  0  0  0
 11 40  1  0  0  0  0
 12 13  1  0  0  0  0
 12 41  1  0  0  0  0
 12 42  1  0  0  0  0
 13 14  1  0  0  0  0
 13 43  1  0  0  0  0
 13 44  1  0  0  0  0
 14 15  2  0  0  0  0
 16 17  1  0  0  0  0
 16 18  1  0  0  0  0
 16 19  1  0  0  0  0
 17 45  1  0  0  0  0
 17 46  1  0  0  0  0
 17 47  1  0  0  0  0
 18 48  1  0  0  0  0
 18 49  1  0  0  0  0
 18 50  1  0  0  0  0
 19 51  1  0  0  0  0
 19 52  1  0  0  0  0
 19 53  1  0  0  0  0
 20 21  1  0  0  0  0
 20 22  1  0  0  0  0
 20 23  1  0  0  0  0
 21 54  1  0  0  0  0
 21 55  1  0  0  0  0
 21 56  1  0  0  0  0
 22 57  1  0  0  0  0
 22 58  1  0  0  0  0
 22 59  1  0  0  0  0
 23 60  1  0  0  0  0
 23 61  1  0  0  0  0
 23 62  1  0  0  0  0
M  END
$$$$
