
 OpenBabel09252517083D

 57 60  0  0  0  0  0  0  0  0999 V2000
    0.9516    0.1545   -0.0631 C   0  0  0  0  0  0  0  0  0  0  0  0
    0.5701   -0.2668    1.2495 O   0  0  0  0  0  0  0  0  0  0  0  0
    0.7729   -1.6177    1.3862 C   0  0  0  0  0  0  0  0  0  0  0  0
    2.0794   -2.1304    1.3538 C   0  0  0  0  0  0  0  0  0  0  0  0
    2.2992   -3.5038    1.4489 C   0  0  0  0  0  0  0  0  0  0  0  0
    1.2142   -4.3663    1.5601 C   0  0  0  0  0  0  0  0  0  0  0  0
   -0.0834   -3.8495    1.6130 C   0  0  0  0  0  0  0  0  0  0  0  0
   -0.3189   -2.4713    1.5784 C   0  0  0  0  0  0  0  0  0  0  0  0
   -1.6643   -1.9989    1.7812 C   0  0  0  0  0  0  0  0  0  0  0  0
   -2.7974   -1.6683    2.0376 C   0  0  0  0  0  0  0  0  0  0  0  0
   -4.1456   -1.2420    2.3378 C   0  0  0  0  0  0  0  0  0  0  0  0
   -5.0861   -2.0143    2.9457 C   0  0  0  0  0  0  0  0  0  0  0  0
   -4.7746   -3.3103    3.5372 N   0  0  0  0  0  0  0  0  0  0  0  0
   -3.5338   -3.9741    3.7541 C   0  0  0  0  0  0  0  0  0  0  0  0
   -2.5500   -3.4691    4.6079 C   0  0  0  0  0  0  0  0  0  0  0  0
   -1.4099   -4.2308    4.8892 C   0  0  0  0  0  0  0  0  0  0  0  0
   -1.2780   -5.5201    4.3691 C   0  0  0  0  0  0  0  0  0  0  0  0
   -2.2847   -6.0520    3.5662 C   0  0  0  0  0  0  0  0  0  0  0  0
   -3.4076   -5.2806    3.2628 C   0  0  0  0  0  0  0  0  0  0  0  0
   -6.0129   -3.7741    4.6327 S   0  0  0  0  0  0  0  0  0  0  0  0
   -6.5960   -5.0266    4.1968 O   0  0  0  0  0  0  0  0  0  0  0  0
   -5.6168   -3.5243    6.0013 O   0  0  0  0  0  0  0  0  0  0  0  0
   -7.0989   -2.5011    4.1647 C   0  0  0  0  0  0  0  0  0  0  0  0
   -8.4140   -2.3954    4.6051 C   0  0  0  0  0  0  0  0  0  0  0  0
   -9.2261   -1.4591    3.9795 C   0  0  0  0  0  0  0  0  0  0  0  0
   -8.7393   -0.7638    2.8705 C   0  0  0  0  0  0  0  0  0  0  0  0
   -7.4199   -0.9538    2.4306 C   0  0  0  0  0  0  0  0  0  0  0  0
   -6.5315   -1.7248    3.1618 C   0  0  0  0  0  0  0  0  0  0  0  0
   -4.2883    0.5941    1.7026 Si  0  0  0  0  0  0  0  0  0  0  0  0
   -2.9567    1.6455    2.5688 C   0  0  0  0  0  0  0  0  0  0  0  0
   -3.9096    0.5430   -0.1595 C   0  0  0  0  0  0  0  0  0  0  0  0
   -5.8395    1.6302    1.9073 C   0  0  0  0  0  0  0  0  0  0  0  0
    0.5477    1.1570   -0.2275 H   0  0  0  0  0  0  0  0  0  0  0  0
    0.5403   -0.5072   -0.8353 H   0  0  0  0  0  0  0  0  0  0  0  0
    2.0417    0.2117   -0.1562 H   0  0  0  0  0  0  0  0  0  0  0  0
    2.9310   -1.4617    1.2640 H   0  0  0  0  0  0  0  0  0  0  0  0
    3.3116   -3.8994    1.4303 H   0  0  0  0  0  0  0  0  0  0  0  0
    1.3720   -5.4398    1.6252 H   0  0  0  0  0  0  0  0  0  0  0  0
   -0.9196   -4.5350    1.7028 H   0  0  0  0  0  0  0  0  0  0  0  0
   -2.6567   -2.4833    5.0509 H   0  0  0  0  0  0  0  0  0  0  0  0
   -0.6213   -3.8169    5.5127 H   0  0  0  0  0  0  0  0  0  0  0  0
   -0.3863   -6.1048    4.5816 H   0  0  0  0  0  0  0  0  0  0  0  0
   -2.1963   -7.0601    3.1697 H   0  0  0  0  0  0  0  0  0  0  0  0
   -4.2009   -5.7092    2.6540 H   0  0  0  0  0  0  0  0  0  0  0  0
   -8.7961   -3.0365    5.3935 H   0  0  0  0  0  0  0  0  0  0  0  0
  -10.2532   -1.3150    4.3053 H   0  0  0  0  0  0  0  0  0  0  0  0
   -9.3957   -0.0892    2.3243 H   0  0  0  0  0  0  0  0  0  0  0  0
   -7.1292   -0.5192    1.4848 H   0  0  0  0  0  0  0  0  0  0  0  0
   -1.9503    1.2769    2.3641 H   0  0  0  0  0  0  0  0  0  0  0  0
   -3.0296    2.6809    2.2192 H   0  0  0  0  0  0  0  0  0  0  0  0
   -3.1325    1.6412    3.6490 H   0  0  0  0  0  0  0  0  0  0  0  0
   -4.5648   -0.1857   -0.6474 H   0  0  0  0  0  0  0  0  0  0  0  0
   -4.0889    1.5235   -0.6094 H   0  0  0  0  0  0  0  0  0  0  0  0
   -2.8701    0.2577   -0.3402 H   0  0  0  0  0  0  0  0  0  0  0  0
   -6.5880    1.4140    1.1402 H   0  0  0  0  0  0  0  0  0  0  0  0
   -6.2803    1.5322    2.9023 H   0  0  0  0  0  0  0  0  0  0  0  0
   -5.5880    2.6884    1.7714 H   0  0  0  0  0  0  0  0  0  0  0  0
  1  2  1  0  0  0  0
  1 33  1  0  0  0  0
  1 34  1  0  0  0  0
  1 35  1  0  0  0  0
  2  3  1  0  0  0  0
  3  4  1  0  0  0  0
  3  8  2  0  0  0  0
  4  5  2  0  0  0  0
  4 36  1  0  0  0  0
  5  6  1  0  0  0  0
  5 37  1  0  0  0  0
  6  7  2  0  0  0  0
  6 38  1  0  0  0  0
  7  8  1  0  0  0  0
  7 39  1  0  0  0  0
  8  9  1  0  0  0  0
  9 10  3  0  0  0  0
 10 11  1  0  0  0  0
 11 12  2  0  0  0  0
 11 29  1  0  0  0  0
 12 13  1  0  0  0  0
 12 28  1  0  0  0  0
 13 14  1  0  0  0  0
 13 20  1  0  0  0  0
 14 15  1  0  0  0  0
 14 19  2  0  0  0  0
 15 16  2  0  0  0  0
 15 40  1  0  0  0  0
 16 17  1  0  0  0  0
 16 41  1  0  0  0  0
 17 18  2  0  0  0  0
 17 42  1  0  0  0  0
 18 19  1  0  0  0  0
 18 43  1  0  0  0  0
 19 44  1  0  0  0  0
 20 21  2  0  0  0  0
 20 22  2  0  0  0  0
 20 23  1  0  0  0  0
 23 24  1  0  0  0  0
 23 28  2  0  0  0  0
 24 25  2  0  0  0  0
 24 45  1  0  0  0  0
 25 26  1  0  0  0  0
 25 46  1  0  0  0  0
 26 27  2  0  0  0  0
 26 47  1  0  0  0  0
 27 28  1  0  0  0  0
 27 48  1  0  0  0  0
 29 30  1  0  0  0  0
 29 31  1  0  0  0  0
 29 32  1  0  0  0  0
 30 49  1  0  0  0  0
 30 50  1  0  0  0  0
 30 51  1  0  0  0  0
 31 52  1  0  0  0  0
 31 53  1  0  0  0  0
 31 54  1  0  0  0  0
 32 55  1  0  0  0  0
 32 56  1  0  0  0  0
 32 57  1  0  0  0  0
M  END
$$$$
