
 OpenBabel09252516553D

 28 28  0  0  0  0  0  0  0  0999 V2000
    1.3332   -0.3138   -0.0778 C   0  0  0  0  0  0  0  0  0  0  0  0
    0.5868   -0.4099    1.2513 C   0  0  0  0  0  0  0  0  0  0  0  0
    1.0832    0.5611    2.3266 C   0  0  0  0  0  0  0  0  0  0  0  0
    0.8798    2.0006    2.0744 C   0  0  0  0  0  0  0  0  0  0  0  0
    0.1227    2.5525    1.1107 C   0  0  0  0  0  0  0  0  0  0  0  0
    0.0158    4.0020    0.8749 C   0  0  0  0  0  0  0  0  0  0  0  0
    1.1001    4.8755    1.0573 C   0  0  0  0  0  0  0  0  0  0  0  0
    0.9680    6.2386    0.7814 C   0  0  0  0  0  0  0  0  0  0  0  0
   -0.2421    6.7274    0.3076 C   0  0  0  0  0  0  0  0  0  0  0  0
   -0.3677    8.0336    0.0406 F   0  0  0  0  0  0  0  0  0  0  0  0
   -1.3211    5.8785    0.0980 C   0  0  0  0  0  0  0  0  0  0  0  0
   -1.1906    4.5158    0.3761 C   0  0  0  0  0  0  0  0  0  0  0  0
    1.6817    0.1227    3.4695 C   0  0  0  0  0  0  0  0  0  0  0  0
    1.9236   -1.2613    3.7160 C   0  0  0  0  0  0  0  0  0  0  0  0
    2.1233   -2.3887    3.9087 N   0  0  0  0  0  0  0  0  0  0  0  0
    2.0901    1.0114    4.5107 C   0  0  0  0  0  0  0  0  0  0  0  0
    2.4112    1.7445    5.3510 N   0  0  0  0  0  0  0  0  0  0  0  0
    1.1400    0.6302   -0.5950 H   0  0  0  0  0  0  0  0  0  0  0  0
    1.0036   -1.1166   -0.7462 H   0  0  0  0  0  0  0  0  0  0  0  0
    2.4142   -0.4093    0.0619 H   0  0  0  0  0  0  0  0  0  0  0  0
   -0.4876   -0.2599    1.0887 H   0  0  0  0  0  0  0  0  0  0  0  0
    0.6685   -1.4500    1.5850 H   0  0  0  0  0  0  0  0  0  0  0  0
    1.4031    2.6866    2.7416 H   0  0  0  0  0  0  0  0  0  0  0  0
   -0.4708    1.9435    0.4349 H   0  0  0  0  0  0  0  0  0  0  0  0
    2.0637    4.5083    1.4025 H   0  0  0  0  0  0  0  0  0  0  0  0
    1.8027    6.9171    0.9268 H   0  0  0  0  0  0  0  0  0  0  0  0
   -2.2548    6.2800   -0.2823 H   0  0  0  0  0  0  0  0  0  0  0  0
   -2.0417    3.8606    0.2037 H   0  0  0  0  0  0  0  0  0  0  0  0
  1  2  1  0  0  0  0
  1 18  1  0  0  0  0
  1 19  1  0  0  0  0
  1 20  1  0  0  0  0
  2  3  1  0  0  0  0
  2 21  1  0  0  0  0
  2 22  1  0  0  0  0
  3  4  1  0  0  0  0
  3 13  2  0  0  0  0
  4  5  2  0  0  0  0
  4 23  1  0  0  0  0
  5  6  1  0  0  0  0
  5 24  1  0  0  0  0
  6  7  1  0  0  0  0
  6 12  2  0  0  0  0
  7  8  2  0  0  0  0
  7 25  1  0  0  0  0
  8  9  1  0  0  0  0
  8 26  1  0  0  0  0
  9 10  1  0  0  0  0
  9 11  2  0  0  0  0
 11 12  1  0  0  0  0
 11 27  1  0  0  0  0
 12 28  1  0  0  0  0
 13 14  1  0  0  0  0
 13 16  1  0  0  0  0
 14 15  3  0  0  0  0
 16 17  3  0  0  0  0
M  END
$$$$
