
 OpenBabel09252515353D

 80 84  0  0  0  0  0  0  0  0999 V2000
    0.9229   -0.0154   -0.0618 Cl  0  0  0  0  0  0  0  0  0  0  0  0
    3.4029   -0.0154   -0.0618 Ru  0  0  0  0  0  0  0  0  0  0  0  0
    2.5798    0.6867   -0.7818 C   0  0  0  0  0  0  0  0  0  0  0  0
    1.6012    0.0161   -1.6379 C   0  0  0  0  0  0  0  0  0  0  0  0
    0.6993    0.7329   -2.4269 C   0  0  0  0  0  0  0  0  0  0  0  0
   -0.1920    0.0614   -3.2159 C   0  0  0  0  0  0  0  0  0  0  0  0
   -0.2215   -1.3272   -3.2351 C   0  0  0  0  0  0  0  0  0  0  0  0
    0.6555   -2.0605   -2.4666 C   0  0  0  0  0  0  0  0  0  0  0  0
    1.5777   -1.3966   -1.6586 C   0  0  0  0  0  0  0  0  0  0  0  0
    2.5390   -2.1208   -0.8176 C   0  0  0  0  0  0  0  0  0  0  0  0
    1.6693   -2.8444    0.1976 C   0  0  0  0  0  0  0  0  0  0  0  0
    3.4029   -1.4106   -0.0618 N   0  0  0  0  0  0  0  0  0  0  0  0
    4.2170   -1.4132   -1.2858 C   0  0  0  0  0  0  0  0  0  0  0  0
    2.9541   -1.7229    1.3027 C   0  0  0  0  0  0  0  0  0  0  0  0
    4.6429   -0.0154    2.0859 Cl  0  0  0  0  0  0  0  0  0  0  0  0
    4.5129   -0.0154   -1.9844 C   0  0  0  0  0  3  0  0  0  0  0  0
    5.8172   -0.8416   -1.8654 N   0  0  0  0  0  0  0  0  0  0  0  0
    6.1121   -1.2247   -3.3401 C   0  0  0  0  0  0  0  0  0  0  0  0
    4.7203   -1.5058   -3.9443 C   0  0  0  0  0  0  0  0  0  0  0  0
    3.7038   -0.7368   -3.0820 N   0  0  0  0  0  0  0  0  0  0  0  0
    2.2462   -0.6973   -3.2680 C   0  0  0  0  0  0  0  0  0  0  0  0
    1.5033   -1.8597   -3.2142 C   0  0  0  0  0  0  0  0  0  0  0  0
    2.2008   -3.1862   -2.9606 C   0  0  0  0  0  0  0  0  0  0  0  0
    0.1904   -1.8319   -3.3810 C   0  0  0  0  0  0  0  0  0  0  0  0
   -0.4568   -0.6991   -3.5978 C   0  0  0  0  0  0  0  0  0  0  0  0
   -1.9661   -0.7187   -3.7761 C   0  0  0  0  0  0  0  0  0  0  0  0
    0.2229    0.5017   -3.6641 C   0  0  0  0  0  0  0  0  0  0  0  0
    1.6004    0.5086   -3.4999 C   0  0  0  0  0  0  0  0  0  0  0  0
    2.3849    1.8085   -3.5722 C   0  0  0  0  0  0  0  0  0  0  0  0
    6.5842   -1.1787   -0.6575 C   0  0  0  0  0  0  0  0  0  0  0  0
    7.8832   -0.7396   -0.4974 C   0  0  0  0  0  0  0  0  0  0  0  0
    8.5486    0.0589   -1.6065 C   0  0  0  0  0  0  0  0  0  0  0  0
    8.5557   -1.0063    0.6111 C   0  0  0  0  0  0  0  0  0  0  0  0
    8.0129   -1.6924    1.6029 C   0  0  0  0  0  0  0  0  0  0  0  0
    8.8242   -1.9667    2.8587 C   0  0  0  0  0  0  0  0  0  0  0  0
    6.7172   -2.1627    1.5110 C   0  0  0  0  0  0  0  0  0  0  0  0
    5.9854   -1.9066    0.3606 C   0  0  0  0  0  0  0  0  0  0  0  0
    4.5590   -2.4124    0.2186 C   0  0  0  0  0  0  0  0  0  0  0  0
    2.6178    1.7555   -0.7484 H   0  0  0  0  0  0  0  0  0  0  0  0
    0.7059    1.8028   -2.4139 H   0  0  0  0  0  0  0  0  0  0  0  0
   -0.8760    0.6126   -3.8268 H   0  0  0  0  0  0  0  0  0  0  0  0
   -0.9333   -1.8328   -3.8537 H   0  0  0  0  0  0  0  0  0  0  0  0
    0.6293   -3.1299   -2.4896 H   0  0  0  0  0  0  0  0  0  0  0  0
    3.1231   -2.7385   -1.4673 H   0  0  0  0  0  0  0  0  0  0  0  0
    0.9723   -3.4744   -0.3145 H   0  0  0  0  0  0  0  0  0  0  0  0
    2.2872   -3.4409    0.8357 H   0  0  0  0  0  0  0  0  0  0  0  0
    1.1362   -2.1272    0.7861 H   0  0  0  0  0  0  0  0  0  0  0  0
    4.3385   -1.6972   -0.3500 H   0  0  0  0  0  0  0  0  0  0  0  0
    5.2016   -1.0604   -1.0600 H   0  0  0  0  0  0  0  0  0  0  0  0
    4.2751   -2.4088   -1.6735 H   0  0  0  0  0  0  0  0  0  0  0  0
    3.7670   -0.7722   -2.0149 H   0  0  0  0  0  0  0  0  0  0  0  0
    2.9685   -2.7828    1.4490 H   0  0  0  0  0  0  0  0  0  0  0  0
    3.6086   -1.2565    2.0090 H   0  0  0  0  0  0  0  0  0  0  0  0
    1.9585   -1.3569    1.4432 H   0  0  0  0  0  0  0  0  0  0  0  0
    6.7711   -2.0638   -3.4213 H   0  0  0  0  0  0  0  0  0  0  0  0
    6.5925   -0.4178   -3.8529 H   0  0  0  0  0  0  0  0  0  0  0  0
    4.5066   -2.5542   -3.9503 H   0  0  0  0  0  0  0  0  0  0  0  0
    4.6809   -1.1617   -4.9567 H   0  0  0  0  0  0  0  0  0  0  0  0
    1.8135   -3.6275   -2.0660 H   0  0  0  0  0  0  0  0  0  0  0  0
    2.0275   -3.8439   -3.7866 H   0  0  0  0  0  0  0  0  0  0  0  0
    3.2522   -3.0211   -2.8506 H   0  0  0  0  0  0  0  0  0  0  0  0
   -0.3606   -2.7482   -3.3393 H   0  0  0  0  0  0  0  0  0  0  0  0
   -2.2180   -1.3299   -4.6175 H   0  0  0  0  0  0  0  0  0  0  0  0
   -2.4242   -1.1180   -2.8953 H   0  0  0  0  0  0  0  0  0  0  0  0
   -2.3188    0.2780   -3.9409 H   0  0  0  0  0  0  0  0  0  0  0  0
   -0.3063    1.4149   -3.8400 H   0  0  0  0  0  0  0  0  0  0  0  0
    2.2443    2.2569   -4.5335 H   0  0  0  0  0  0  0  0  0  0  0  0
    2.0379    2.4773   -2.8125 H   0  0  0  0  0  0  0  0  0  0  0  0
    3.4248    1.6063   -3.4217 H   0  0  0  0  0  0  0  0  0  0  0  0
    8.8308    1.0211   -1.2332 H   0  0  0  0  0  0  0  0  0  0  0  0
    9.4196   -0.4610   -1.9470 H   0  0  0  0  0  0  0  0  0  0  0  0
    7.8639    0.1785   -2.4200 H   0  0  0  0  0  0  0  0  0  0  0  0
    9.5630   -0.6582    0.7071 H   0  0  0  0  0  0  0  0  0  0  0  0
    9.7004   -2.5248    2.6025 H   0  0  0  0  0  0  0  0  0  0  0  0
    9.1110   -1.0388    3.3078 H   0  0  0  0  0  0  0  0  0  0  0  0
    8.2322   -2.5296    3.5499 H   0  0  0  0  0  0  0  0  0  0  0  0
    6.2836   -2.7173    2.3168 H   0  0  0  0  0  0  0  0  0  0  0  0
    4.5505   -3.4801    0.2895 H   0  0  0  0  0  0  0  0  0  0  0  0
    3.9545   -1.9984    0.9984 H   0  0  0  0  0  0  0  0  0  0  0  0
    4.1681   -2.1149   -0.7319 H   0  0  0  0  0  0  0  0  0  0  0  0
  1  2  1  0  0  0  0
  2  3  2  0  0  0  0
  2 12  1  0  0  0  0
  2 15  1  0  0  0  0
  2 16  1  0  0  0  0
  3  4  1  0  0  0  0
  3 39  1  0  0  0  0
  4  5  1  0  0  0  0
  4  9  2  0  0  0  0
  5  6  2  0  0  0  0
  5 40  1  0  0  0  0
  6  7  1  0  0  0  0
  6 41  1  0  0  0  0
  7  8  2  0  0  0  0
  7 42  1  0  0  0  0
  8  9  1  0  0  0  0
  8 43  1  0  0  0  0
  9 10  1  0  0  0  0
 10 11  1  0  0  0  0
 10 12  1  0  0  0  0
 10 44  1  0  0  0  0
 11 45  1  0  0  0  0
 11 46  1  0  0  0  0
 11 47  1  0  0  0  0
 12 13  1  0  0  0  0
 12 14  1  0  0  0  0
 12 48  1  0  0  0  0
 13 49  1  0  0  0  0
 13 50  1  0  0  0  0
 13 51  1  0  0  0  0
 14 52  1  0  0  0  0
 14 53  1  0  0  0  0
 14 54  1  0  0  0  0
 16 17  1  0  0  0  0
 16 20  1  0  0  0  0
 17 18  1  0  0  0  0
 17 30  1  0  0  0  0
 18 19  1  0  0  0  0
 18 55  1  0  0  0  0
 18 56  1  0  0  0  0
 19 20  1  0  0  0  0
 19 57  1  0  0  0  0
 19 58  1  0  0  0  0
 20 21  1  0  0  0  0
 21 22  1  0  0  0  0
 21 28  2  0  0  0  0
 22 23  1  0  0  0  0
 22 24  2  0  0  0  0
 23 59  1  0  0  0  0
 23 60  1  0  0  0  0
 23 61  1  0  0  0  0
 24 25  1  0  0  0  0
 24 62  1  0  0  0  0
 25 26  1  0  0  0  0
 25 27  2  0  0  0  0
 26 63  1  0  0  0  0
 26 64  1  0  0  0  0
 26 65  1  0  0  0  0
 27 28  1  0  0  0  0
 27 66  1  0  0  0  0
 28 29  1  0  0  0  0
 29 67  1  0  0  0  0
 29 68  1  0  0  0  0
 29 69  1  0  0  0  0
 30 31  1  0  0  0  0
 30 37  2  0  0  0  0
 31 32  1  0  0  0  0
 31 33  2  0  0  0  0
 32 70  1  0  0  0  0
 32 71  1  0  0  0  0
 32 72  1  0  0  0  0
 33 34  1  0  0  0  0
 33 73  1  0  0  0  0
 34 35  1  0  0  0  0
 34 36  2  0  0  0  0
 35 74  1  0  0  0  0
 35 75  1  0  0  0  0
 35 76  1  0  0  0  0
 36 37  1  0  0  0  0
 36 77  1  0  0  0  0
 37 38  1  0  0  0  0
 38 78  1  0  0  0  0
 38 79  1  0  0  0  0
 38 80  1  0  0  0  0
M  END
$$$$
