
 OpenBabel09252516023D

 28 28  0  0  0  0  0  0  0  0999 V2000
    1.2650    0.2129    0.0233 C   0  0  0  0  0  0  0  0  0  0  0  0
    0.5595    0.1548   -1.3284 C   0  0  0  0  0  0  0  0  0  0  0  0
    1.0476   -0.9878   -2.2219 C   0  0  0  0  0  0  0  0  0  0  0  0
    1.9441   -0.6582   -3.3481 C   0  0  0  0  0  0  0  0  0  0  0  0
    2.4156    0.5471   -3.7130 C   0  0  0  0  0  0  0  0  0  0  0  0
    3.2903    0.7464   -4.8833 C   0  0  0  0  0  0  0  0  0  0  0  0
    3.0415    0.1239   -6.1174 C   0  0  0  0  0  0  0  0  0  0  0  0
    3.8783    0.3586   -7.2124 C   0  0  0  0  0  0  0  0  0  0  0  0
    4.9561    1.2243   -7.0785 C   0  0  0  0  0  0  0  0  0  0  0  0
    5.7579    1.4491   -8.1274 F   0  0  0  0  0  0  0  0  0  0  0  0
    5.2094    1.8654   -5.8725 C   0  0  0  0  0  0  0  0  0  0  0  0
    4.3732    1.6317   -4.7773 C   0  0  0  0  0  0  0  0  0  0  0  0
    0.6268   -2.2659   -2.0021 C   0  0  0  0  0  0  0  0  0  0  0  0
   -0.2498   -2.5926   -0.9242 C   0  0  0  0  0  0  0  0  0  0  0  0
   -0.9578   -2.8444   -0.0391 N   0  0  0  0  0  0  0  0  0  0  0  0
    1.0247   -3.3624   -2.8247 C   0  0  0  0  0  0  0  0  0  0  0  0
    1.3504   -4.2438   -3.5054 N   0  0  0  0  0  0  0  0  0  0  0  0
    1.0357   -0.6633    0.6381 H   0  0  0  0  0  0  0  0  0  0  0  0
    0.9301    1.0938    0.5813 H   0  0  0  0  0  0  0  0  0  0  0  0
    2.3515    0.2730   -0.0903 H   0  0  0  0  0  0  0  0  0  0  0  0
   -0.5220    0.0602   -1.1650 H   0  0  0  0  0  0  0  0  0  0  0  0
    0.6607    1.1283   -1.8161 H   0  0  0  0  0  0  0  0  0  0  0  0
    2.2683   -1.4999   -3.9629 H   0  0  0  0  0  0  0  0  0  0  0  0
    2.1943    1.4555   -3.1629 H   0  0  0  0  0  0  0  0  0  0  0  0
    2.1911   -0.5422   -6.2449 H   0  0  0  0  0  0  0  0  0  0  0  0
    3.6929   -0.1241   -8.1670 H   0  0  0  0  0  0  0  0  0  0  0  0
    6.0541    2.5421   -5.7919 H   0  0  0  0  0  0  0  0  0  0  0  0
    4.5815    2.1399   -3.8384 H   0  0  0  0  0  0  0  0  0  0  0  0
  1  2  1  0  0  0  0
  1 18  1  0  0  0  0
  1 19  1  0  0  0  0
  1 20  1  0  0  0  0
  2  3  1  0  0  0  0
  2 21  1  0  0  0  0
  2 22  1  0  0  0  0
  3  4  1  0  0  0  0
  3 13  2  0  0  0  0
  4  5  2  0  0  0  0
  4 23  1  0  0  0  0
  5  6  1  0  0  0  0
  5 24  1  0  0  0  0
  6  7  1  0  0  0  0
  6 12  2  0  0  0  0
  7  8  2  0  0  0  0
  7 25  1  0  0  0  0
  8  9  1  0  0  0  0
  8 26  1  0  0  0  0
  9 10  1  0  0  0  0
  9 11  2  0  0  0  0
 11 12  1  0  0  0  0
 11 27  1  0  0  0  0
 12 28  1  0  0  0  0
 13 14  1  0  0  0  0
 13 16  1  0  0  0  0
 14 15  3  0  0  0  0
 16 17  3  0  0  0  0
M  END
$$$$
