
     RDKit          3D

 55 59  0  0  0  0  0  0  0  0999 V2000
    3.8781    0.8245    3.8464 C   0  0  0  0  0  0  0  0  0  0  0  0
    4.2630    1.1849    2.5662 C   0  0  0  0  0  0  0  0  0  0  0  0
    3.4464    0.7616    1.5417 C   0  0  0  0  0  0  0  0  0  0  0  0
    2.2751    0.0092    1.6623 C   0  0  0  0  0  0  0  0  0  0  0  0
    1.3378   -0.4539    0.2361 P   0  0  0  0  0  5  0  0  0  0  0  0
    2.4563   -0.4202   -1.1604 C   0  0  0  0  0  0  0  0  0  0  0  0
    2.1991    0.2802   -2.3076 C   0  0  0  0  0  0  0  0  0  0  0  0
    3.0976    0.2712   -3.3544 C   0  0  0  0  0  0  0  0  0  0  0  0
    4.2777   -0.4545   -3.2491 C   0  0  0  0  0  0  0  0  0  0  0  0
    4.5719   -1.1784   -2.0967 C   0  0  0  0  0  0  0  0  0  0  0  0
    3.6301   -1.1386   -1.0626 C   0  0  0  0  0  0  0  0  0  0  0  0
    0.5927   -2.1740    0.3643 S   0  0  0  0  0  4  0  0  0  0  0  0
    0.0639   -2.4157   -1.6733 Cu  0  0  0  0  0  3  0  0  0  0  0  0
    1.4143   -3.1459   -2.8695 I   0  0  0  0  0  0  0  0  0  0  0  0
   -1.0940   -0.9807   -2.1825 S   0  0  0  0  0  4  0  0  0  0  0  0
   -1.5140    0.0046   -0.6289 P   0  0  0  0  0  5  0  0  0  0  0  0
   -2.4116   -0.9400    0.5627 C   0  0  0  0  0  0  0  0  0  0  0  0
   -2.7020   -2.2850    0.4514 C   0  0  0  0  0  0  0  0  0  0  0  0
   -3.4076   -2.9658    1.4178 C   0  0  0  0  0  0  0  0  0  0  0  0
   -3.8462   -2.2812    2.5479 C   0  0  0  0  0  0  0  0  0  0  0  0
   -3.5580   -0.9273    2.6675 C   0  0  0  0  0  0  0  0  0  0  0  0
   -2.8471   -0.2614    1.6845 C   0  0  0  0  0  0  0  0  0  0  0  0
   -2.5561    1.4127   -1.0679 C   0  0  0  0  0  0  0  0  0  0  0  0
   -2.5328    2.6136   -0.3889 C   0  0  0  0  0  0  0  0  0  0  0  0
   -3.3401    3.6602   -0.7530 C   0  0  0  0  0  0  0  0  0  0  0  0
   -4.1730    3.4575   -1.8253 C   0  0  0  0  0  0  0  0  0  0  0  0
   -4.2083    2.2621   -2.5151 C   0  0  0  0  0  0  0  0  0  0  0  0
   -3.3936    1.1968   -2.1526 C   0  0  0  0  0  0  0  0  0  0  0  0
   -0.0001    0.7336    0.0472 C   0  0  0  0  0  0  0  0  0  0  0  0
    1.9590   -0.3111    2.9808 C   0  0  0  0  0  0  0  0  0  0  0  0
    2.7440    0.0888    4.0430 C   0  0  0  0  0  0  0  0  0  0  0  0
    4.5174    1.1560    4.6480 H   0  0  0  0  0  0  0  0  0  0  0  0
    5.1433    1.7654    2.3097 H   0  0  0  0  0  0  0  0  0  0  0  0
    3.7212    1.0293    0.5129 H   0  0  0  0  0  0  0  0  0  0  0  0
    1.2710    0.8527   -2.3942 H   0  0  0  0  0  0  0  0  0  0  0  0
    2.8232    0.8522   -4.2339 H   0  0  0  0  0  0  0  0  0  0  0  0
    4.9715   -0.4404   -4.1009 H   0  0  0  0  0  0  0  0  0  0  0  0
    5.4859   -1.7368   -2.0229 H   0  0  0  0  0  0  0  0  0  0  0  0
    3.8664   -1.7078   -0.1627 H   0  0  0  0  0  0  0  0  0  0  0  0
    1.4952   -3.1897    0.5511 H   0  0  0  0  0  0  0  0  0  0  0  0
   -2.2014   -1.4099   -2.8722 H   0  0  0  0  0  0  0  0  0  0  0  0
   -2.3498   -2.7928   -0.4361 H   0  0  0  0  0  0  0  0  0  0  0  0
   -3.6430   -4.0142    1.3476 H   0  0  0  0  0  0  0  0  0  0  0  0
   -4.4044   -2.7644    3.3388 H   0  0  0  0  0  0  0  0  0  0  0  0
   -3.9207   -0.4202    3.5740 H   0  0  0  0  0  0  0  0  0  0  0  0
   -2.6580    0.7918    1.8418 H   0  0  0  0  0  0  0  0  0  0  0  0
   -1.8201    2.6094    0.4321 H   0  0  0  0  0  0  0  0  0  0  0  0
   -3.2787    4.5642   -0.1913 H   0  0  0  0  0  0  0  0  0  0  0  0
   -4.8112    4.3060   -2.1017 H   0  0  0  0  0  0  0  0  0  0  0  0
   -4.9029    2.2006   -3.3510 H   0  0  0  0  0  0  0  0  0  0  0  0
   -3.4417    0.2824   -2.7047 H   0  0  0  0  0  0  0  0  0  0  0  0
   -0.2810    1.1251    1.0677 H   0  0  0  0  0  0  0  0  0  0  0  0
    0.3031    1.6065   -0.5535 H   0  0  0  0  0  0  0  0  0  0  0  0
    1.0571   -0.8952    3.1267 H   0  0  0  0  0  0  0  0  0  0  0  0
    2.4347   -0.1982    5.0427 H   0  0  0  0  0  0  0  0  0  0  0  0
  1  2  2  0
  2  3  1  0
  3  4  2  0
  4  5  1  0
  5  6  1  0
  6  7  2  0
  7  8  1  0
  8  9  2  0
  9 10  1  0
 10 11  2  0
  5 12  2  0
 12 13  1  0
 13 14  1  0
 13 15  1  0
 15 16  2  0
 16 17  1  0
 17 18  2  0
 18 19  1  0
 19 20  2  0
 20 21  1  0
 21 22  2  0
 16 23  1  0
 23 24  2  0
 24 25  1  0
 25 26  2  0
 26 27  1  0
 27 28  2  0
 16 29  1  0
  4 30  1  0
 30 31  2  0
 31  1  1  0
 29  5  1  0
 11  6  1  0
 22 17  1  0
 28 23  1  0
  1 32  1  0
  2 33  1  0
  3 34  1  0
  7 35  1  0
  8 36  1  0
  9 37  1  0
 10 38  1  0
 11 39  1  0
 12 40  1  0
 15 41  1  0
 18 42  1  0
 19 43  1  0
 20 44  1  0
 21 45  1  0
 22 46  1  0
 24 47  1  0
 25 48  1  0
 26 49  1  0
 27 50  1  0
 28 51  1  0
 29 52  1  0
 29 53  1  0
 30 54  1  0
 31 55  1  0
M  END
