
  --CCDC--081225    3D                              

 57 64  0  0  0  0  0  0  0  0999 V2000
    1.2535    3.2679   -2.3092 C      0
    2.2386    2.2065   -2.1302 C      0
    3.0198    1.3876   -1.9685 N      0
    4.5246   -0.1897   -1.6569 Fe     1
    6.0721   -1.6928   -1.2468 N      0
    6.8656   -2.4731   -1.0145 C      0
    7.9221   -3.4028   -0.6527 C      0
    4.3113   -0.2003    0.5190 C      0
    3.0052   -0.6463    0.8311 N      0
    2.6186   -2.0364    0.5372 C      0
    2.8613   -2.5079   -0.8339 N      0
    3.1757   -3.7940   -1.2990 C      0
    3.2788   -3.7244   -2.6403 C      0
    3.0368   -2.3923   -3.0126 N      0
    2.9706   -1.7650   -4.3406 C      0
    3.8903   -0.6342   -4.5455 N      0
    3.7754    0.4774   -5.3935 C      0
    4.8749    1.2358   -5.2285 C      0
    5.6814    0.6121   -4.2667 N      0
    7.0032    1.0095   -3.7542 C      0
    7.0948    1.2013   -2.2990 N      0
    8.2065    1.1176   -1.4468 C      0
    7.7826    1.3946   -0.1993 C      0
    6.4035    1.6335   -0.2684 N      0
    5.4704    2.0047    0.8020 C      0
    4.2919    1.1389    0.9797 N      0
    3.0266    1.4772    1.4741 C      0
    2.2398    0.3887    1.3819 C      0
    5.9112    1.5012   -1.5886 C      0
    5.0580   -0.5509   -3.7524 C      0
    2.8307   -1.5648   -1.8853 C      0
    1.4741    3.8394   -3.2088 H      0
    1.2544    3.9538   -1.4626 H      0
    0.2502    2.8576   -2.4105 H      0
    7.5684   -4.4302   -0.6788 H      0
    8.2834   -3.1902    0.3506 H      0
    8.7599   -3.3114   -1.3393 H      0
    3.1408   -2.7052    1.2321 H      0
    1.5451   -2.1324    0.7392 H      0
    3.2911   -4.6860   -0.6899 H      0
    3.4909   -4.5519   -3.3109 H      0
    3.1624   -2.5333   -5.0990 H      0
    1.9459   -1.4076   -4.4999 H      0
    2.9588    0.6816   -6.0781 H      0
    5.1060    2.1548   -5.7571 H      0
    7.7397    0.2582   -4.0650 H      0
    7.2895    1.9539   -4.2325 H      0
    9.2257    0.8890   -1.7443 H      0
    8.3960    1.4365    0.6954 H      0
    6.0325    2.0561    1.7412 H      0
    5.1146    3.0184    0.5861 H      0
    2.7356    2.4469    1.8620 H      0
    1.2009    0.3180    1.6843 H      0
    5.0896   -0.8029    1.0132 H      0
    5.4416    2.4252   -1.9577 H      0
    5.6940   -1.4420   -3.8666 H      0
    1.8638   -1.0399   -1.9293 H      0
  1  2  1
  2  3  3
  3  4  1
  4  5  1
  5  6  3
  6  7  1
  4  8  1
  8  9  1
  9 10  1
 10 11  1
 11 12  1
 12 13  2
 13 14  1
 14 15  1
 15 16  1
 16 17  1
 17 18  2
 18 19  1
 19 20  1
 20 21  1
 21 22  1
 22 23  2
 23 24  1
 24 25  1
 25 26  1
  8 26  1
 26 27  1
 27 28  2
  9 28  1
 24 29  1
  4 29  1
 21 29  1
 19 30  1
  4 30  1
 16 30  1
 14 31  1
  4 31  1
 11 31  1
  1 32  1
  1 33  1
  1 34  1
  7 35  1
  7 36  1
  7 37  1
 10 38  1
 10 39  1
 12 40  1
 13 41  1
 15 42  1
 15 43  1
 17 44  1
 18 45  1
 20 46  1
 20 47  1
 22 48  1
 23 49  1
 25 50  1
 25 51  1
 27 52  1
 28 53  1
  8 54  1
 29 55  1
 30 56  1
 31 57  1
M  CHG  1   4   3
M  END
$$$$
