
     RDKit          3D

 62 63  0  0  0  0  0  0  0  0999 V2000
   -1.7409    0.7633    2.5517 C   0  0  0  0  0  0  0  0  0  0  0  0
   -1.7091   -0.2500    0.8367 Pt  0  0  0  0  0  6  0  0  0  0  0  0
   -1.7171   -1.9912    1.8990 C   0  0  0  0  0  0  0  0  0  0  0  0
   -3.3628   -0.6565    0.6894 C   0  0  0  0  0  0  0  0  0  0  0  0
    0.1679   -0.1296    0.8648 N   0  0  0  0  0  0  0  0  0  0  0  0
    1.1639   -0.9377    1.2687 N   0  0  0  0  0  0  0  0  0  0  0  0
    2.3748   -0.5419    1.1866 C   0  0  0  0  0  0  0  0  0  0  0  0
    3.4177   -1.4929    1.6444 C   0  0  0  0  0  0  0  0  0  0  0  0
    4.4572   -1.5081    0.5491 C   0  0  0  0  0  0  0  0  0  0  0  0
    3.8729   -1.2421   -0.7993 C   0  0  0  0  0  0  0  0  0  0  0  0
    4.0873    0.0985   -1.3818 C   0  0  0  0  0  0  0  0  0  0  0  0
    4.3249    1.2379   -0.4673 C   0  0  0  0  0  0  0  0  0  0  0  0
    3.1387    1.7746    0.2606 C   0  0  0  0  0  0  0  0  0  0  0  0
    2.2627    0.6632    0.6774 C   0  0  0  0  0  0  0  0  0  0  0  0
    1.0123    0.8500    0.5146 N   0  0  0  0  0  0  0  0  0  0  0  0
   -2.2183    1.4981    0.0021 P   0  0  0  0  0  4  0  0  0  0  0  0
   -0.8792    2.6981   -0.0466 C   0  0  0  0  0  0  0  0  0  0  0  0
   -3.0230    1.6149   -1.5620 C   0  0  0  0  0  0  0  0  0  0  0  0
   -3.5323    2.5160    0.9396 C   0  0  0  0  0  0  0  0  0  0  0  0
   -1.3891   -0.9921   -1.0297 P   0  0  0  0  0  4  0  0  0  0  0  0
   -0.1668   -0.1689   -2.1301 C   0  0  0  0  0  0  0  0  0  0  0  0
   -0.5947   -2.6886   -0.9747 C   0  0  0  0  0  0  0  0  0  0  0  0
   -2.7503   -1.3165   -2.0785 C   0  0  0  0  0  0  0  0  0  0  0  0
   -1.2129    1.7106    2.5889 H   0  0  0  0  0  0  0  0  0  0  0  0
   -1.2070    0.2351    3.3358 H   0  0  0  0  0  0  0  0  0  0  0  0
   -2.7247    0.8414    2.9444 H   0  0  0  0  0  0  0  0  0  0  0  0
   -2.4229   -2.0960    2.6862 H   0  0  0  0  0  0  0  0  0  0  0  0
   -1.4951   -2.8157    1.2665 H   0  0  0  0  0  0  0  0  0  0  0  0
   -0.8070   -1.9778    2.5315 H   0  0  0  0  0  0  0  0  0  0  0  0
   -4.1151   -0.2100   -0.0034 H   0  0  0  0  0  0  0  0  0  0  0  0
   -3.8200   -1.6853    0.4178 H   0  0  0  0  0  0  0  0  0  0  0  0
   -4.0938   -0.4795    1.5645 H   0  0  0  0  0  0  0  0  0  0  0  0
    3.8227   -1.2645    2.6309 H   0  0  0  0  0  0  0  0  0  0  0  0
    2.9812   -2.5108    1.7003 H   0  0  0  0  0  0  0  0  0  0  0  0
    4.9424   -2.5206    0.5767 H   0  0  0  0  0  0  0  0  0  0  0  0
    5.2718   -0.8233    0.8536 H   0  0  0  0  0  0  0  0  0  0  0  0
    4.3419   -1.9733   -1.5238 H   0  0  0  0  0  0  0  0  0  0  0  0
    2.7842   -1.5378   -0.8452 H   0  0  0  0  0  0  0  0  0  0  0  0
    4.8874    0.1149   -2.1731 H   0  0  0  0  0  0  0  0  0  0  0  0
    3.1586    0.3640   -1.9723 H   0  0  0  0  0  0  0  0  0  0  0  0
    4.6864    2.0883   -1.1250 H   0  0  0  0  0  0  0  0  0  0  0  0
    5.1738    1.1084    0.2419 H   0  0  0  0  0  0  0  0  0  0  0  0
    3.5069    2.3902    1.1081 H   0  0  0  0  0  0  0  0  0  0  0  0
    2.5759    2.4209   -0.4399 H   0  0  0  0  0  0  0  0  0  0  0  0
   -0.0669    2.4967   -0.7459 H   0  0  0  0  0  0  0  0  0  0  0  0
   -1.3493    3.6238   -0.4271 H   0  0  0  0  0  0  0  0  0  0  0  0
   -0.5244    2.9826    0.9710 H   0  0  0  0  0  0  0  0  0  0  0  0
   -4.1270    1.4180   -1.5734 H   0  0  0  0  0  0  0  0  0  0  0  0
   -2.9534    2.6875   -1.8331 H   0  0  0  0  0  0  0  0  0  0  0  0
   -2.5780    1.1272   -2.4381 H   0  0  0  0  0  0  0  0  0  0  0  0
   -3.4994    3.4705    0.4653 H   0  0  0  0  0  0  0  0  0  0  0  0
   -4.4814    1.9776    0.8703 H   0  0  0  0  0  0  0  0  0  0  0  0
   -3.1942    2.6034    1.9816 H   0  0  0  0  0  0  0  0  0  0  0  0
   -0.3536    0.8786   -2.3038 H   0  0  0  0  0  0  0  0  0  0  0  0
   -0.1351   -0.8037   -3.0015 H   0  0  0  0  0  0  0  0  0  0  0  0
    0.8505   -0.3181   -1.6433 H   0  0  0  0  0  0  0  0  0  0  0  0
   -1.4301   -3.3780   -0.6510 H   0  0  0  0  0  0  0  0  0  0  0  0
    0.2561   -2.6724   -0.2930 H   0  0  0  0  0  0  0  0  0  0  0  0
   -0.4169   -2.9477   -2.0034 H   0  0  0  0  0  0  0  0  0  0  0  0
   -3.7386   -0.8622   -1.8354 H   0  0  0  0  0  0  0  0  0  0  0  0
   -3.0721   -2.4126   -2.1772 H   0  0  0  0  0  0  0  0  0  0  0  0
   -2.6174   -1.0485   -3.1414 H   0  0  0  0  0  0  0  0  0  0  0  0
  1  2  1  0
  2  3  1  0
  2  4  1  0
  2  5  1  0
  5  6  1  0
  6  7  2  0
  7  8  1  0
  8  9  1  0
  9 10  1  0
 10 11  1  0
 11 12  1  0
 12 13  1  0
 13 14  1  0
 14 15  2  0
  2 16  1  0
 16 17  1  0
 16 18  1  0
 16 19  1  0
  2 20  1  0
 20 21  1  0
 20 22  1  0
 20 23  1  0
 15  5  1  0
 14  7  1  0
  1 24  1  0
  1 25  1  0
  1 26  1  0
  3 27  1  0
  3 28  1  0
  3 29  1  0
  4 30  1  0
  4 31  1  0
  4 32  1  0
  8 33  1  0
  8 34  1  0
  9 35  1  0
  9 36  1  0
 10 37  1  0
 10 38  1  0
 11 39  1  0
 11 40  1  0
 12 41  1  0
 12 42  1  0
 13 43  1  0
 13 44  1  0
 17 45  1  0
 17 46  1  0
 17 47  1  0
 18 48  1  0
 18 49  1  0
 18 50  1  0
 19 51  1  0
 19 52  1  0
 19 53  1  0
 21 54  1  0
 21 55  1  0
 21 56  1  0
 22 57  1  0
 22 58  1  0
 22 59  1  0
 23 60  1  0
 23 61  1  0
 23 62  1  0
M  RAD  2  16   2  20   2
M  END
