
     RDKit          3D

 46 54  0  0  0  0  0  0  0  0999 V2000
    0.3786   -1.9926    0.1325 Cl  0  0  0  0  0  0  0  0  0  0  0  0
   -0.4410   -0.0325    0.2800 Ir  0  0  0  0  0  9  0  0  0  0  0  0
   -0.4806    0.6575    2.1081 C   0  0  0  0  0  0  0  0  0  0  0  0
    0.5842    0.1390    1.7596 C   0  0  0  0  0  0  0  0  0  0  0  0
    2.0174   -0.2852    1.9652 C   0  0  0  0  0  0  0  0  0  0  0  0
    3.0023   -0.6191    2.8777 C   0  0  0  0  0  0  0  0  0  0  0  0
    4.2918   -0.5620    2.4533 C   0  0  0  0  0  0  0  0  0  0  0  0
    4.5889   -0.1855    1.1773 C   0  0  0  0  0  0  0  0  0  0  0  0
    3.6085    0.1337    0.2776 C   0  0  0  0  0  0  0  0  0  0  0  0
    4.1709    0.6350   -0.9126 C   0  0  0  0  0  0  0  0  0  0  0  0
    3.2524    1.1280   -1.8424 C   0  0  0  0  0  0  0  0  0  0  0  0
    1.9361    1.0456   -1.4717 C   0  0  0  0  0  0  0  0  0  0  0  0
    1.2493    0.5609   -0.3203 C   0  0  0  0  0  0  0  0  0  0  0  0
    2.2061    0.0863    0.6161 C   0  0  0  0  0  0  0  0  0  0  0  0
   -1.4588    1.0208   -0.6170 C   0  0  0  0  0  0  0  0  0  0  0  0
   -1.3946    2.3137   -1.1948 C   0  0  0  0  0  0  0  0  0  0  0  0
   -2.1683    0.3765    0.3446 C   0  0  0  0  0  0  0  0  0  0  0  0
   -3.3414    0.8357    0.8132 C   0  0  0  0  0  0  0  0  0  0  0  0
   -1.7611   -0.9419    0.7708 C   0  0  0  0  0  0  0  0  0  0  0  0
   -2.2676   -1.7945    1.7810 C   0  0  0  0  0  0  0  0  0  0  0  0
   -1.4403   -1.3390   -0.4808 C   0  0  0  0  0  0  0  0  0  0  0  0
   -2.5782   -1.8713   -1.0869 C   0  0  0  0  0  0  0  0  0  0  0  0
   -1.1282   -0.1681   -1.1979 C   0  0  0  0  0  0  0  0  0  0  0  0
   -0.9123   -0.1998   -2.5942 C   0  0  0  0  0  0  0  0  0  0  0  0
   -0.8651    1.1827    3.0996 H   0  0  0  0  0  0  0  0  0  0  0  0
    2.5457   -0.8811    3.7972 H   0  0  0  0  0  0  0  0  0  0  0  0
    4.9473   -0.8460    3.2503 H   0  0  0  0  0  0  0  0  0  0  0  0
    5.6310   -0.1678    0.9633 H   0  0  0  0  0  0  0  0  0  0  0  0
    5.2005    0.6632   -1.1438 H   0  0  0  0  0  0  0  0  0  0  0  0
    3.4595    1.5413   -2.7791 H   0  0  0  0  0  0  0  0  0  0  0  0
    1.2666    1.4471   -2.2164 H   0  0  0  0  0  0  0  0  0  0  0  0
   -2.0005    3.0545   -0.5812 H   0  0  0  0  0  0  0  0  0  0  0  0
   -0.3703    2.7633   -1.1707 H   0  0  0  0  0  0  0  0  0  0  0  0
   -1.7282    2.3531   -2.2496 H   0  0  0  0  0  0  0  0  0  0  0  0
   -3.3816    1.9554    0.9811 H   0  0  0  0  0  0  0  0  0  0  0  0
   -3.6893    0.4423    1.8153 H   0  0  0  0  0  0  0  0  0  0  0  0
   -4.1899    0.6509    0.1225 H   0  0  0  0  0  0  0  0  0  0  0  0
   -1.4134   -2.2513    2.3730 H   0  0  0  0  0  0  0  0  0  0  0  0
   -2.8220   -1.2330    2.5895 H   0  0  0  0  0  0  0  0  0  0  0  0
   -2.8240   -2.6476    1.4135 H   0  0  0  0  0  0  0  0  0  0  0  0
   -2.9885   -2.7766   -0.5705 H   0  0  0  0  0  0  0  0  0  0  0  0
   -2.3245   -2.2750   -2.1129 H   0  0  0  0  0  0  0  0  0  0  0  0
   -3.4556   -1.2051   -1.2036 H   0  0  0  0  0  0  0  0  0  0  0  0
   -0.8063    0.7835   -3.1466 H   0  0  0  0  0  0  0  0  0  0  0  0
   -1.9054   -0.5399   -3.0332 H   0  0  0  0  0  0  0  0  0  0  0  0
   -0.2003   -0.9553   -2.9971 H   0  0  0  0  0  0  0  0  0  0  0  0
  1  2  1  0
  2  3  1  0
  3  4  2  0
  4  5  1  0
  5  6  2  0
  6  7  1  0
  7  8  2  0
  8  9  1  0
  9 10  2  0
 10 11  1  0
 11 12  2  0
 12 13  1  0
 13 14  2  0
  2 15  1  0
 15 16  1  0
 15 17  1  0
 17 18  1  0
 17 19  1  0
 19 20  1  0
 19 21  1  0
 21 22  1  0
 21 23  1  0
 23 24  1  0
  4  2  1  0
 14  5  1  0
 23 15  1  0
 13  2  1  0
 17  2  1  0
 19  2  1  0
 21  2  1  0
 23  2  1  0
 14  9  1  0
  3 25  1  0
  6 26  1  0
  7 27  1  0
  8 28  1  0
 10 29  1  0
 11 30  1  0
 12 31  1  0
 16 32  1  0
 16 33  1  0
 16 34  1  0
 18 35  1  0
 18 36  1  0
 18 37  1  0
 20 38  1  0
 20 39  1  0
 20 40  1  0
 22 41  1  0
 22 42  1  0
 22 43  1  0
 24 44  1  0
 24 45  1  0
 24 46  1  0
M  END
