
 OpenBabel09252518323D

 32 35  0  0  0  0  0  0  0  0999 V2000
    1.6959    1.1594   -0.7829 H   0  0  0  0  0  0  0  0  0  0  0  0
    2.2324    0.3858   -0.2443 C   0  0  0  0  0  3  0  0  0  0  0  0
    1.6311   -0.9292   -0.1259 C   0  0  0  0  0  3  0  0  0  0  0  0
    0.6549   -1.1168   -0.5571 H   0  0  0  0  0  0  0  0  0  0  0  0
    2.4424   -2.0427    0.3259 C   0  0  0  0  0  3  0  0  0  0  0  0
    1.9852   -3.0157    0.4517 H   0  0  0  0  0  0  0  0  0  0  0  0
    3.8686   -1.8573    0.5255 C   0  0  0  0  0  3  0  0  0  0  0  0
    4.5010   -0.5198    0.5570 C   0  0  0  0  0  3  0  0  0  0  0  0
    3.6580    0.5672    0.0121 C   0  0  0  0  0  3  0  0  0  0  0  0
    4.1299    1.3820   -0.5191 H   0  0  0  0  0  0  0  0  0  0  0  0
    5.9446   -0.4145    0.9054 C   0  0  0  0  0  0  0  0  0  0  0  0
    6.6715   -1.5653    0.8693 C   0  0  0  0  0  0  0  0  0  0  0  0
    6.0438   -2.8933    0.5748 C   0  0  0  0  0  0  0  0  0  0  0  0
    6.7118   -3.9160    0.4419 O   0  0  0  0  0  0  0  0  0  0  0  0
    4.6832   -2.9453    0.5167 N   0  0  0  0  0  0  0  0  0  0  0  0
    4.2953   -3.8674    0.3714 H   0  0  0  0  0  0  0  0  0  0  0  0
    8.1466   -1.6342    1.1813 C   0  0  0  0  0  0  0  0  0  0  0  0
    8.7057   -1.4285    0.2591 H   0  0  0  0  0  0  0  0  0  0  0  0
    8.4449   -2.6366    1.5094 H   0  0  0  0  0  0  0  0  0  0  0  0
    8.5605   -0.6620    2.2770 C   0  0  0  0  0  0  0  0  0  0  0  0
    9.6559   -0.6248    2.3198 H   0  0  0  0  0  0  0  0  0  0  0  0
    8.2161   -1.0342    3.2506 H   0  0  0  0  0  0  0  0  0  0  0  0
    7.9904    0.6988    2.0537 C   0  0  0  0  0  3  0  0  0  0  0  0
    8.6699    1.8457    2.6449 C   0  0  0  0  0  3  0  0  0  0  0  0
    9.6287    1.7225    3.1341 H   0  0  0  0  0  0  0  0  0  0  0  0
    8.0279    3.1421    2.6648 C   0  0  0  0  0  3  0  0  0  0  0  0
    8.4868    3.9710    3.1884 H   0  0  0  0  0  0  0  0  0  0  0  0
    6.7286    3.2960    2.0507 C   0  0  0  0  0  3  0  0  0  0  0  0
    6.1965    4.2354    2.1340 H   0  0  0  0  0  0  0  0  0  0  0  0
    6.1391    2.1959    1.3022 C   0  0  0  0  0  3  0  0  0  0  0  0
    5.4562    2.4811    0.5194 H   0  0  0  0  0  0  0  0  0  0  0  0
    6.6531    0.8127    1.3986 C   0  0  0  0  0  3  0  0  0  0  0  0
  1  2  1  0  0  0  0
  2  3  1  0  0  0  0
  2  9  1  0  0  0  0
  3  4  1  0  0  0  0
  3  5  1  0  0  0  0
  5  6  1  0  0  0  0
  5  7  1  0  0  0  0
  7  8  1  0  0  0  0
  7 15  1  0  0  0  0
  8  9  1  0  0  0  0
  8 11  1  0  0  0  0
  9 10  1  0  0  0  0
 11 12  2  0  0  0  0
 11 32  1  0  0  0  0
 12 13  1  0  0  0  0
 12 17  1  0  0  0  0
 13 14  2  0  0  0  0
 13 15  1  0  0  0  0
 15 16  1  0  0  0  0
 17 18  1  0  0  0  0
 17 19  1  0  0  0  0
 17 20  1  0  0  0  0
 20 21  1  0  0  0  0
 20 22  1  0  0  0  0
 20 23  1  0  0  0  0
 23 24  1  0  0  0  0
 23 32  1  0  0  0  0
 24 25  1  0  0  0  0
 24 26  1  0  0  0  0
 26 27  1  0  0  0  0
 26 28  1  0  0  0  0
 28 29  1  0  0  0  0
 28 30  1  0  0  0  0
 30 31  1  0  0  0  0
 30 32  1  0  0  0  0
M  END
$$$$
