
     RDKit          3D

  0  0  0  0  0  0  0  0  0  0999 V3000
M  V30 BEGIN CTAB
M  V30 COUNTS 47 52 0 0 0
M  V30 BEGIN ATOM
M  V30 1 C -1.794612 1.421383 1.773371 0
M  V30 2 C -2.015500 0.101145 1.156951 0
M  V30 3 N -1.888829 -1.049549 0.633834 0
M  V30 4 C -2.246734 -2.305064 0.063832 0
M  V30 5 C -1.126954 -3.162286 -0.325773 0
M  V30 6 C -0.282784 -2.578906 -1.461082 0
M  V30 7 N 0.593871 -1.604487 -1.024293 0
M  V30 8 C 1.607669 -0.904936 -0.788107 0
M  V30 9 C 2.244655 0.262710 -0.172092 0
M  V30 10 C 1.499092 1.398254 0.092541 0
M  V30 11 O 0.195607 1.270845 -0.308100 0
M  V30 12 Cu -0.560339 -0.272929 -0.252480 0 VAL=4
M  V30 13 O -1.858454 0.057074 -1.983127 0
M  V30 14 C -3.052899 0.426201 -1.244151 0
M  V30 15 C -4.081782 0.757156 -2.141597 0
M  V30 16 C -5.259528 1.146860 -1.559312 0
M  V30 17 C -5.549054 1.251182 -0.224928 0
M  V30 18 C -4.521293 0.917722 0.625414 0
M  V30 19 C -3.223709 0.485507 0.242573 0
M  V30 20 C 2.005039 2.558589 0.702827 0
M  V30 21 C 3.337934 2.433195 1.009434 0
M  V30 22 C 4.115750 1.333955 0.768946 0
M  V30 23 C 5.438997 1.310268 1.121916 0
M  V30 24 C 6.271594 0.232516 0.912668 0
M  V30 25 C 5.718835 -0.877808 0.310831 0
M  V30 26 C 4.398719 -0.859046 -0.043428 0
M  V30 27 C 3.581211 0.225007 0.171761 0
M  V30 28 H -1.187604 2.152465 1.250030 0
M  V30 29 H -2.682529 1.882495 2.192612 0
M  V30 30 H -1.124036 1.208710 2.711426 0
M  V30 31 H -2.932193 -2.210777 -0.810060 0
M  V30 32 H -2.858200 -2.896459 0.806770 0
M  V30 33 H -0.420894 -3.347993 0.512475 0
M  V30 34 H -1.522177 -4.106340 -0.653669 0
M  V30 35 H -1.033400 -2.127095 -2.160709 0
M  V30 36 H 0.110336 -3.439192 -2.004622 0
M  V30 37 H 2.387227 -1.366883 -1.345875 0
M  V30 38 H -3.904226 0.692079 -3.170739 0
M  V30 39 H -6.083230 1.411885 -2.204746 0
M  V30 40 H -6.431508 1.545799 0.298981 0
M  V30 41 H -4.571688 0.991956 1.728243 0
M  V30 42 H 1.365675 3.403760 0.876209 0
M  V30 43 H 3.795491 3.269274 1.475351 0
M  V30 44 H 5.832925 2.197605 1.590119 0
M  V30 45 H 7.313328 0.257875 1.208241 0
M  V30 46 H 6.365434 -1.741019 0.137974 0
M  V30 47 H 4.034768 -1.752703 -0.496442 0
M  V30 END ATOM
M  V30 BEGIN BOND
M  V30 1 1 1 2
M  V30 2 2 2 3
M  V30 3 1 3 4
M  V30 4 1 4 5
M  V30 5 1 5 6
M  V30 6 1 6 7
M  V30 7 2 7 8
M  V30 8 1 8 9
M  V30 9 2 9 10
M  V30 10 1 10 11
M  V30 11 1 11 12
M  V30 12 1 12 13
M  V30 13 1 13 14
M  V30 14 2 14 15
M  V30 15 1 15 16
M  V30 16 2 16 17
M  V30 17 1 17 18
M  V30 18 2 18 19
M  V30 19 1 10 20
M  V30 20 2 20 21
M  V30 21 1 21 22
M  V30 22 2 22 23
M  V30 23 1 23 24
M  V30 24 2 24 25
M  V30 25 1 25 26
M  V30 26 2 26 27
M  V30 27 1 19 2
M  V30 28 1 27 22
M  V30 29 9 3 12
M  V30 30 1 19 14
M  V30 31 9 7 12
M  V30 32 1 27 9
M  V30 33 1 1 28
M  V30 34 1 1 29
M  V30 35 1 1 30
M  V30 36 1 4 31
M  V30 37 1 4 32
M  V30 38 1 5 33
M  V30 39 1 5 34
M  V30 40 1 6 35
M  V30 41 1 6 36
M  V30 42 1 8 37
M  V30 43 1 15 38
M  V30 44 1 16 39
M  V30 45 1 17 40
M  V30 46 1 18 41
M  V30 47 1 20 42
M  V30 48 1 21 43
M  V30 49 1 23 44
M  V30 50 1 24 45
M  V30 51 1 25 46
M  V30 52 1 26 47
M  V30 END BOND
M  V30 END CTAB
M  END
