
  --CCDC--092525    3D                              

 70 72  0  0  0  0  0  0  0  0999 V2000
    0.3338   -0.5278    0.5089 C      0
    1.6600   -0.3941   -0.0800 C      0
    2.6919   -0.2785   -0.5607 N      0
    4.4341   -0.0834   -1.3722 Co     3
    5.4695    0.4511   -2.9179 C      0
    6.7302    0.2433   -3.7345 C      0
    7.5141   -0.9024   -3.6343 C      0
    8.6800   -1.0292   -4.3743 C      0
    9.0703   -0.0289   -5.2385 C      0
    8.2920    1.0995   -5.3695 C      0
    7.1303    1.2334   -4.6276 C      0
    4.4093    1.0305   -2.9374 C      0
    3.5331    1.9441   -3.7385 C      0
    2.3939    2.5004   -3.1639 C      0
    1.5909    3.3692   -3.8841 C      0
    1.8920    3.6678   -5.1946 C      0
    3.0019    3.1060   -5.7859 C      0
    3.8180    2.2483   -5.0670 C      0
    4.4595    1.5463    0.2806 P      0
    3.7313    3.0393   -0.4352 C      0
    6.1059    2.0525    0.8200 C      0
    3.5080    1.1988    1.7836 C      0
    3.6100   -2.1098   -2.1144 P      0
    2.1224   -1.7606   -3.0832 C      0
    3.0778   -3.2258   -0.7882 C      0
    4.6885   -2.9430   -3.3073 C      0
    6.0683   -1.1820   -0.1356 P      0
    6.4430   -2.8926   -0.5952 C      0
    5.6359   -1.2316    1.6197 C      0
    7.7140   -0.4402   -0.3235 C      0
   -0.2792    0.3454    0.2948 H      0
    0.4017   -0.6347    1.5894 H      0
   -0.1758   -1.4045    0.1141 H      0
    7.2067   -1.7059   -2.9762 H      0
    9.2895   -1.9216   -4.2750 H      0
    9.9834   -0.1311   -5.8170 H      0
    8.5933    1.8882   -6.0516 H      0
    6.5344    2.1335   -4.7311 H      0
    2.1277    2.2494   -2.1424 H      0
    0.7194    3.8152   -3.4162 H      0
    1.2566    4.3401   -5.7616 H      0
    3.2371    3.3310   -6.8208 H      0
    4.6804    1.8023   -5.5489 H      0
    4.0677    3.1771   -1.4604 H      0
    4.0167    3.9218    0.1334 H      0
    2.6459    2.9774   -0.4409 H      0
    6.7008    2.4041   -0.0198 H      0
    6.6323    1.2276    1.2917 H      0
    6.0370    2.8593    1.5459 H      0
    2.5141    1.6321    1.7208 H      0
    3.9965    1.6433    2.6488 H      0
    3.3999    0.1351    1.9734 H      0
    1.7535   -2.6648   -3.5625 H      0
    2.3316   -1.0305   -3.8621 H      0
    1.3263   -1.3655   -2.4578 H      0
    2.0343   -3.0665   -0.5339 H      0
    3.6514   -3.0911    0.1227 H      0
    3.1774   -4.2614   -1.1048 H      0
    5.2942   -2.2162   -3.8440 H      0
    4.0902   -3.4797   -4.0401 H      0
    5.3582   -3.6610   -2.8527 H      0
    7.1612   -2.9276   -1.4093 H      0
    5.5692   -3.4563   -0.8974 H      0
    6.8949   -3.4096    0.2489 H      0
    4.6602   -1.6896    1.7665 H      0
    5.6118   -0.2334    2.0469 H      0
    6.3669   -1.8123    2.1780 H      0
    8.3519   -1.0756   -0.9303 H      0
    7.7143    0.5376   -0.7863 H      0
    8.1917   -0.3399    0.6489 H      0
  1  2  1
  2  3  3
  3  4  1
  4  5  1
  5  6  1
  6  7  4
  7  8  4
  8  9  4
  9 10  4
 10 11  4
  6 11  4
  5 12  3
  4 12  1
 12 13  1
 13 14  4
 14 15  4
 15 16  4
 16 17  4
 17 18  4
 13 18  4
  4 19  1
 19 20  1
 19 21  1
 19 22  1
  4 23  1
 23 24  1
 23 25  1
 23 26  1
  4 27  1
 27 28  1
 27 29  1
 27 30  1
  1 31  1
  1 32  1
  1 33  1
  7 34  1
  8 35  1
  9 36  1
 10 37  1
 11 38  1
 14 39  1
 15 40  1
 16 41  1
 17 42  1
 18 43  1
 20 44  1
 20 45  1
 20 46  1
 21 47  1
 21 48  1
 21 49  1
 22 50  1
 22 51  1
 22 52  1
 24 53  1
 24 54  1
 24 55  1
 25 56  1
 25 57  1
 25 58  1
 26 59  1
 26 60  1
 26 61  1
 28 62  1
 28 63  1
 28 64  1
 29 65  1
 29 66  1
 29 67  1
 30 68  1
 30 69  1
 30 70  1
M  CHG  1   4   1
M  END
$$$$
