
  --CCDC--092525    3D                              

 55 54  0  0  0  0  0  0  0  0999 V2000
   -1.0797   -0.0899    0.0483 H      0
   -0.4346    0.7289   -0.2628 C      0
   -0.7846    1.0607   -1.2371 H      0
    0.5766    0.3467   -0.3852 H      0
   -0.4992    1.9016    0.7184 C      0
   -1.5599    2.1888    0.7116 H      0
    0.0131    2.7691    0.2760 H      0
   -0.1030    1.6748    2.5036 P      0
   -1.1950    0.1854    2.5316 C      0
   -0.7367   -0.6076    1.9238 H      0
   -2.0854    0.4985    1.9608 H      0
   -1.7775   -0.4799    3.7876 C      0
   -2.6209   -1.0898    3.4778 H      0
   -2.1698    0.2181    4.5181 H      0
   -1.0756   -1.1413    4.2799 H      0
   -0.9830    2.2729    4.0114 C      0
   -2.0293    2.0273    3.7998 H      0
   -0.7008    1.6772    4.8850 H      0
   -1.1087    3.7244    4.4846 C      0
   -1.3565    4.4201    3.6810 H      0
   -0.2234    4.0653    5.0267 H      0
   -1.9319    3.7791    5.1911 H      0
    1.5267    1.5848    2.6701 O      0
    2.4991    2.1107    0.8467 I      0
    1.0558    3.6598    2.6426 I      0
    1.2260    0.6761    3.7151 C      0
    0.9822   -0.0606    4.5623 O      0
    1.8552    0.3845    2.0037 C      0
    1.0345   -0.0467    1.4675 H      0
    2.6305    0.6058    1.2716 H      0
    2.2054   -0.4046    2.6541 H      0
    2.7596    1.9664    3.6683 P      0
    3.7905    3.4440    3.2627 C      0
    4.5853    3.1329    2.5772 H      0
    3.2515    4.2216    2.7260 H      0
    4.4256    4.1654    4.4450 C      0
    3.6571    4.6077    5.0777 H      0
    5.0255    3.4937    5.0561 H      0
    5.0699    4.9701    4.1005 H      0
    2.0510    2.5619    5.2639 C      0
    1.0887    2.0967    5.5095 H      0
    1.8662    3.6420    5.2397 H      0
    2.9415    2.2634    6.4656 C      0
    3.2807    1.2271    6.4738 H      0
    2.3704    2.4443    7.3725 H      0
    3.8204    2.9020    6.5060 H      0
    4.2235    0.9516    3.1950 C      0
    4.0033   -0.1187    3.2866 H      0
    4.5312    1.1261    2.1578 H      0
    5.4535    1.1883    4.0601 C      0
    6.1645    0.3773    3.9266 H      0
    5.1913    1.2300    5.1154 H      0
    5.9575    2.1155    3.7952 H      0
   -0.4511    3.0184    2.3303 H      0
    3.0461    0.9369    4.5692 H      0
  1  2  1
  2  3  1
  2  4  1
  2  5  1
  5  6  1
  5  7  1
  5  8  1
  8  9  1
  9 10  1
  9 11  1
  9 12  1
 12 13  1
 12 14  1
 12 15  1
  8 16  1
 16 17  1
 16 18  1
 16 19  1
 19 20  1
 19 21  1
 19 22  1
  8 23  1
 23 24  1
 23 25  1
 23 26  1
 26 27  3
 23 28  1
 28 29  1
 28 30  1
 28 31  1
 23 32  1
 32 33  1
 33 34  1
 33 35  1
 33 36  1
 36 37  1
 36 38  1
 36 39  1
 32 40  1
 40 41  1
 40 42  1
 40 43  1
 43 44  1
 43 45  1
 43 46  1
 32 47  1
 47 48  1
 47 49  1
 47 50  1
 50 51  1
 50 52  1
 50 53  1
  8 54  1
 32 55  1
M  END
$$$$
