
 OpenBabel09252517123D

 80 84  0  0  0  0  0  0  0  0999 V2000
    0.9475   -0.0846   -0.0092 Cl  0  0  0  0  0  0  0  0  0  0  0  0
    3.4275   -0.0846   -0.0092 Ru  0  0  0  0  0  0  0  0  0  0  0  0
    3.9884   -0.7868    0.9296 C   0  0  0  0  0  0  0  0  0  0  0  0
    4.6553   -0.1161    2.0458 C   0  0  0  0  0  0  0  0  0  0  0  0
    5.2700   -0.8330    3.0745 C   0  0  0  0  0  0  0  0  0  0  0  0
    5.8864   -0.1615    4.0926 C   0  0  0  0  0  0  0  0  0  0  0  0
    5.9001    1.2271    4.1252 C   0  0  0  0  0  0  0  0  0  0  0  0
    5.3011    1.9604    3.1246 C   0  0  0  0  0  0  0  0  0  0  0  0
    4.6714    1.2966    2.0726 C   0  0  0  0  0  0  0  0  0  0  0  0
    4.0162    2.0207    0.9762 C   0  0  0  0  0  0  0  0  0  0  0  0
    2.8617    2.7443    1.6499 C   0  0  0  0  0  0  0  0  0  0  0  0
    3.4275    1.3106   -0.0092 N   0  0  0  0  0  0  0  0  0  0  0  0
    4.1851    1.4099    1.2467 C   0  0  0  0  0  0  0  0  0  0  0  0
    2.0047    1.6229    0.1879 C   0  0  0  0  0  0  0  0  0  0  0  0
    4.6675   -0.0846   -2.1569 Cl  0  0  0  0  0  0  0  0  0  0  0  0
    4.5375   -0.0846    1.9134 C   0  0  0  0  0  3  0  0  0  0  0  0
    5.8418    0.7415    1.7943 N   0  0  0  0  0  0  0  0  0  0  0  0
    6.1367    1.1247    3.2690 C   0  0  0  0  0  0  0  0  0  0  0  0
    4.7449    1.4058    3.8733 C   0  0  0  0  0  0  0  0  0  0  0  0
    3.7285    0.6368    3.0110 N   0  0  0  0  0  0  0  0  0  0  0  0
    2.2708    0.5973    3.1970 C   0  0  0  0  0  0  0  0  0  0  0  0
    1.5280    1.7597    3.1430 C   0  0  0  0  0  0  0  0  0  0  0  0
    2.2254    3.0862    2.8894 C   0  0  0  0  0  0  0  0  0  0  0  0
    0.2150    1.7319    3.3097 C   0  0  0  0  0  0  0  0  0  0  0  0
   -0.4322    0.5991    3.5265 C   0  0  0  0  0  0  0  0  0  0  0  0
   -1.9416    0.6187    3.7046 C   0  0  0  0  0  0  0  0  0  0  0  0
    0.2475   -0.6018    3.5930 C   0  0  0  0  0  0  0  0  0  0  0  0
    1.6250   -0.6086    3.4288 C   0  0  0  0  0  0  0  0  0  0  0  0
    2.4095   -1.9085    3.5014 C   0  0  0  0  0  0  0  0  0  0  0  0
    6.6088    1.0786    0.5865 C   0  0  0  0  0  0  0  0  0  0  0  0
    7.9362    0.7117    0.4902 C   0  0  0  0  0  0  0  0  0  0  0  0
    8.5790   -0.0850    1.6138 C   0  0  0  0  0  0  0  0  0  0  0  0
    8.6554    1.0460   -0.5697 C   0  0  0  0  0  0  0  0  0  0  0  0
    8.1341    1.7332   -1.5722 C   0  0  0  0  0  0  0  0  0  0  0  0
    8.9995    2.0867   -2.7707 C   0  0  0  0  0  0  0  0  0  0  0  0
    6.8122    2.1336   -1.5428 C   0  0  0  0  0  0  0  0  0  0  0  0
    6.0309    1.8056   -0.4444 C   0  0  0  0  0  0  0  0  0  0  0  0
    4.5741    2.2331   -0.3718 C   0  0  0  0  0  0  0  0  0  0  0  0
    3.9623   -1.8556    0.8863 H   0  0  0  0  0  0  0  0  0  0  0  0
    5.2583   -1.9029    3.0656 H   0  0  0  0  0  0  0  0  0  0  0  0
    6.3649   -0.7126    4.8751 H   0  0  0  0  0  0  0  0  0  0  0  0
    6.3811    1.7327    4.9363 H   0  0  0  0  0  0  0  0  0  0  0  0
    5.3190    3.0299    3.1545 H   0  0  0  0  0  0  0  0  0  0  0  0
    4.7601    2.6384    0.5180 H   0  0  0  0  0  0  0  0  0  0  0  0
    3.2406    3.3743    2.4273 H   0  0  0  0  0  0  0  0  0  0  0  0
    2.3446    3.3409    0.9277 H   0  0  0  0  0  0  0  0  0  0  0  0
    2.1872    2.0272    2.0689 H   0  0  0  0  0  0  0  0  0  0  0  0
    3.8787    1.5972   -0.8779 H   0  0  0  0  0  0  0  0  0  0  0  0
    4.1090    2.4054    1.6313 H   0  0  0  0  0  0  0  0  0  0  0  0
    3.7847    0.7203    1.9602 H   0  0  0  0  0  0  0  0  0  0  0  0
    5.2129    1.1761    1.0627 H   0  0  0  0  0  0  0  0  0  0  0  0
    1.8633    2.6827    0.1475 H   0  0  0  0  0  0  0  0  0  0  0  0
    1.4271    1.1564   -0.5826 H   0  0  0  0  0  0  0  0  0  0  0  0
    1.6880    1.2569    1.1422 H   0  0  0  0  0  0  0  0  0  0  0  0
    6.7957    1.9638    3.3503 H   0  0  0  0  0  0  0  0  0  0  0  0
    6.6171    0.3178    3.7819 H   0  0  0  0  0  0  0  0  0  0  0  0
    4.5312    2.4542    3.8793 H   0  0  0  0  0  0  0  0  0  0  0  0
    4.7056    1.0617    4.8857 H   0  0  0  0  0  0  0  0  0  0  0  0
    1.8383    3.5274    1.9948 H   0  0  0  0  0  0  0  0  0  0  0  0
    2.0521    3.7439    3.7154 H   0  0  0  0  0  0  0  0  0  0  0  0
    3.2769    2.9210    2.7795 H   0  0  0  0  0  0  0  0  0  0  0  0
   -0.3360    2.6482    3.2680 H   0  0  0  0  0  0  0  0  0  0  0  0
   -2.1935    1.2299    4.5460 H   0  0  0  0  0  0  0  0  0  0  0  0
   -2.3995    1.0180    2.8239 H   0  0  0  0  0  0  0  0  0  0  0  0
   -2.2942   -0.3780    3.8695 H   0  0  0  0  0  0  0  0  0  0  0  0
   -0.2818   -1.5149    3.7688 H   0  0  0  0  0  0  0  0  0  0  0  0
    2.2687   -2.3569    4.4626 H   0  0  0  0  0  0  0  0  0  0  0  0
    2.0626   -2.5773    2.7416 H   0  0  0  0  0  0  0  0  0  0  0  0
    3.4494   -1.7064    3.3509 H   0  0  0  0  0  0  0  0  0  0  0  0
    8.9323   -1.0197    1.2314 H   0  0  0  0  0  0  0  0  0  0  0  0
    9.4006    0.4683    2.0185 H   0  0  0  0  0  0  0  0  0  0  0  0
    7.8566   -0.2642    2.3825 H   0  0  0  0  0  0  0  0  0  0  0  0
    9.6834    0.7531   -0.6164 H   0  0  0  0  0  0  0  0  0  0  0  0
    9.8291    2.6809   -2.4487 H   0  0  0  0  0  0  0  0  0  0  0  0
    9.3599    1.1888   -3.2276 H   0  0  0  0  0  0  0  0  0  0  0  0
    8.4187    2.6393   -3.4794 H   0  0  0  0  0  0  0  0  0  0  0  0
    6.3962    2.6895   -2.3570 H   0  0  0  0  0  0  0  0  0  0  0  0
    4.5132    3.3006   -0.4137 H   0  0  0  0  0  0  0  0  0  0  0  0
    4.0375    1.8126   -1.1964 H   0  0  0  0  0  0  0  0  0  0  0  0
    4.1462    1.8873    0.5459 H   0  0  0  0  0  0  0  0  0  0  0  0
  1  2  1  0  0  0  0
  2  3  2  0  0  0  0
  2 12  1  0  0  0  0
  2 15  1  0  0  0  0
  2 16  1  0  0  0  0
  3  4  1  0  0  0  0
  3 39  1  0  0  0  0
  4  5  1  0  0  0  0
  4  9  2  0  0  0  0
  5  6  2  0  0  0  0
  5 40  1  0  0  0  0
  6  7  1  0  0  0  0
  6 41  1  0  0  0  0
  7  8  2  0  0  0  0
  7 42  1  0  0  0  0
  8  9  1  0  0  0  0
  8 43  1  0  0  0  0
  9 10  1  0  0  0  0
 10 11  1  0  0  0  0
 10 12  1  0  0  0  0
 10 44  1  0  0  0  0
 11 45  1  0  0  0  0
 11 46  1  0  0  0  0
 11 47  1  0  0  0  0
 12 13  1  0  0  0  0
 12 14  1  0  0  0  0
 12 48  1  0  0  0  0
 13 49  1  0  0  0  0
 13 50  1  0  0  0  0
 13 51  1  0  0  0  0
 14 52  1  0  0  0  0
 14 53  1  0  0  0  0
 14 54  1  0  0  0  0
 16 17  1  0  0  0  0
 16 20  1  0  0  0  0
 17 18  1  0  0  0  0
 17 30  1  0  0  0  0
 18 19  1  0  0  0  0
 18 55  1  0  0  0  0
 18 56  1  0  0  0  0
 19 20  1  0  0  0  0
 19 57  1  0  0  0  0
 19 58  1  0  0  0  0
 20 21  1  0  0  0  0
 21 22  1  0  0  0  0
 21 28  2  0  0  0  0
 22 23  1  0  0  0  0
 22 24  2  0  0  0  0
 23 59  1  0  0  0  0
 23 60  1  0  0  0  0
 23 61  1  0  0  0  0
 24 25  1  0  0  0  0
 24 62  1  0  0  0  0
 25 26  1  0  0  0  0
 25 27  2  0  0  0  0
 26 63  1  0  0  0  0
 26 64  1  0  0  0  0
 26 65  1  0  0  0  0
 27 28  1  0  0  0  0
 27 66  1  0  0  0  0
 28 29  1  0  0  0  0
 29 67  1  0  0  0  0
 29 68  1  0  0  0  0
 29 69  1  0  0  0  0
 30 31  1  0  0  0  0
 30 37  2  0  0  0  0
 31 32  1  0  0  0  0
 31 33  2  0  0  0  0
 32 70  1  0  0  0  0
 32 71  1  0  0  0  0
 32 72  1  0  0  0  0
 33 34  1  0  0  0  0
 33 73  1  0  0  0  0
 34 35  1  0  0  0  0
 34 36  2  0  0  0  0
 35 74  1  0  0  0  0
 35 75  1  0  0  0  0
 35 76  1  0  0  0  0
 36 37  1  0  0  0  0
 36 77  1  0  0  0  0
 37 38  1  0  0  0  0
 38 78  1  0  0  0  0
 38 79  1  0  0  0  0
 38 80  1  0  0  0  0
M  END
$$$$
