
  --CCDC--092525    3D                              

 73 75  0  0  0  0  0  0  0  0999 V2000
   -1.1728    0.8550    0.3820 H      0
   -0.3621    1.5760    0.3990 C      0
   -0.2233    2.4881   -0.6214 C      0
   -0.9299    2.4897   -1.4447 H      0
    0.8126    3.4067   -0.5999 C      0
    0.8879    4.1311   -1.4022 H      0
    1.7434    3.4290    0.4367 C      0
    2.8775    4.4365    0.3699 C      0
    3.3694    5.2249   -0.3882 C      0
    3.2379    5.7478   -1.7842 C      0
    2.5700    5.0143   -2.7605 C      0
    2.1342    4.0540   -2.5052 H      0
    2.4548    5.4959   -4.0538 C      0
    1.9296    4.9126   -4.8029 H      0
    3.0044    6.7125   -4.3930 C      0
    2.9126    7.0882   -5.4067 H      0
    3.6715    7.4501   -3.4400 C      0
    4.1063    8.4083   -3.7049 H      0
    3.7898    6.9734   -2.1451 C      0
    4.3187    7.5625   -1.4032 H      0
    4.1414    5.5176    1.3526 Co     3
    5.2454    6.7502    2.3472 N      0
    5.8980    7.5098    2.9044 C      0
    6.7002    8.4989    3.6110 C      0
    6.8464    9.3859    2.9982 H      0
    7.6788    8.0945    3.8609 H      0
    6.2125    8.8020    4.5352 H      0
    3.8793    4.2589    3.2848 P      0
    4.9535    4.7767    4.6463 C      0
    5.7956    5.3559    4.2741 H      0
    5.3485    3.9213    5.1874 H      0
    4.4050    5.3973    5.3518 H      0
    2.2109    4.8136    3.7200 C      0
    1.9348    4.4169    4.6948 H      0
    1.4768    4.4500    3.0101 H      0
    2.1185    5.8900    3.7725 H      0
    4.5698    2.7534    2.5512 C      0
    4.1533    2.5726    1.5637 H      0
    4.3352    1.8936    3.1753 H      0
    5.6420    2.7831    2.4444 H      0
    2.9153    7.4537    1.6269 P      0
    2.6911    8.9222    0.5946 C      0
    1.8091    9.4784    0.9051 H      0
    2.5651    8.6494   -0.4502 H      0
    3.5519    9.5831    0.6718 H      0
    1.3833    6.6680    1.0649 C      0
    1.3818    6.5199   -0.0122 H      0
    0.5361    7.3098    1.2975 H      0
    1.2057    5.7152    1.5453 H      0
    3.0554    7.9627    3.3603 C      0
    3.6272    8.8838    3.4471 H      0
    3.5509    7.2034    3.9597 H      0
    2.0709    8.1471    3.7852 H      0
    6.3289    5.0065    0.7414 P      0
    7.3428    4.8046    2.2366 C      0
    7.6693    5.7545    2.6428 H      0
    8.2498    4.2605    1.9817 H      0
    6.8557    4.2605    3.0355 H      0
    6.3952    5.9872   -0.7758 C      0
    5.8201    5.5227   -1.5693 H      0
    7.4217    6.0628   -1.1284 H      0
    6.0210    6.9952   -0.6093 H      0
    6.5199    3.3982   -0.0705 C      0
    5.9171    3.3566   -0.9753 H      0
    6.2223    2.5700    0.5648 H      0
    7.5579    3.2398   -0.3552 H      0
    1.5739    2.5030    1.4673 C      0
    2.2520    2.4825    2.3082 H      0
    0.5339    1.5883    1.4432 C      0
    0.4251    0.8757    2.2541 H      0
    3.0412    3.1609    3.5110 H      0
    4.0917    7.6681    0.8988 H      0
    7.3135    6.0013    0.7711 H      0
  1  2  1
  2  3  4
  3  4  1
  3  5  4
  5  6  1
  5  7  4
  7  8  1
  8  9  3
  9 10  1
 10 11  4
 11 12  1
 11 13  4
 13 14  1
 13 15  4
 15 16  1
 15 17  4
 17 18  1
 17 19  4
 10 19  4
 19 20  1
  9 21  1
  8 21  1
 21 22  1
 22 23  3
 23 24  1
 24 25  1
 24 26  1
 24 27  1
 21 28  1
 28 29  1
 29 30  1
 29 31  1
 29 32  1
 28 33  1
 33 34  1
 33 35  1
 33 36  1
 28 37  1
 37 38  1
 37 39  1
 37 40  1
 21 41  1
 41 42  1
 42 43  1
 42 44  1
 42 45  1
 41 46  1
 46 47  1
 46 48  1
 46 49  1
 41 50  1
 50 51  1
 50 52  1
 50 53  1
 21 54  1
 54 55  1
 55 56  1
 55 57  1
 55 58  1
 54 59  1
 59 60  1
 59 61  1
 59 62  1
 54 63  1
 63 64  1
 63 65  1
 63 66  1
  7 67  4
 67 68  1
 67 69  4
  2 69  4
 69 70  1
 28 71  1
 41 72  1
 54 73  1
M  CHG  1  21   1
M  END
$$$$
