
 OpenBabel09252515043D

 48 56  0  0  1  0  0  0  0  0999 V2000
    0.9706    0.0676   -0.0676 H   0  0  0  0  0  0  0  0  0  0  0  0
    2.0406    0.0676   -0.0676 C   0  0  0  0  0  3  0  0  0  0  0  0
    2.5473   -0.4781   -1.3927 C   0  0  0  0  0  3  0  0  0  0  0  0
    3.6173   -0.4781   -1.3927 H   0  0  0  0  0  0  0  0  0  0  0  0
    2.0406   -1.8986   -1.5827 C   0  0  0  0  0  3  0  0  0  0  0  0
    2.2144   -2.2489   -3.0459 C   0  0  0  0  0  3  0  0  0  0  0  0
    3.6889   -2.6235   -3.2525 C   0  0  0  0  0  3  0  0  0  0  0  0
    4.5750   -1.4647   -2.8252 C   0  0  0  0  0  3  0  0  0  0  0  0
    4.4050   -1.2482   -1.7912 H   0  0  0  0  0  0  0  0  0  0  0  0
    6.0336   -1.8394   -3.0313 C   0  0  0  0  0  3  0  0  0  0  0  0
    6.2036   -2.0559   -4.0653 H   0  0  0  0  0  0  0  0  0  0  0  0
    6.9196   -0.6806   -2.6039 C   0  0  0  0  0  3  0  0  0  0  0  0
    7.6453   -0.2488   -3.2610 H   0  0  0  0  0  0  0  0  0  0  0  0
    1.8545   -1.0538   -3.9135 C   0  0  0  0  0  3  0  0  0  0  0  0
    2.5473   -0.8071    1.0675 C   0  0  0  0  0  3  0  0  0  0  0  0
    3.5118   -0.6774    1.5122 H   0  0  0  0  0  0  0  0  0  0  0  0
    4.0091   -3.8566   -2.4030 Ir  0  0  0  0  0  0  0  0  0  0  0  0
    5.2914   -2.0405   -3.3840 Cl  0  0  0  0  0  0  0  0  0  0  0  0
    3.6276   -3.6344   -0.9687 C   0  0  0  0  0  0  0  0  0  0  0  0
    3.7103   -4.6589   -1.2660 H   0  0  0  0  0  0  0  0  0  0  0  0
    3.9795   -2.9324   -0.2419 H   0  0  0  0  0  0  0  0  0  0  0  0
    2.7246   -2.7469   -0.5885 C   0  0  1  0  0  0  0  0  0  0  0  0
    3.0566   -1.8579   -0.0941 H   0  0  0  0  0  0  0  0  0  0  0  0
    5.1438   -5.8120   -4.3378 C   0  0  2  0  0  0  0  0  0  0  0  0
    5.7945   -7.0088   -5.0120 C   0  0  0  0  0  0  0  0  0  0  0  0
    6.8439   -7.0090   -4.8035 H   0  0  0  0  0  0  0  0  0  0  0  0
    5.3564   -7.9106   -4.6380 H   0  0  0  0  0  0  0  0  0  0  0  0
    5.6409   -6.9495   -6.0692 H   0  0  0  0  0  0  0  0  0  0  0  0
    3.6303   -5.5778   -4.3101 C   0  0  2  0  0  0  0  0  0  0  0  0
    2.9712   -6.2210   -5.5194 C   0  0  0  0  0  0  0  0  0  0  0  0
    3.0372   -5.5579   -6.3565 H   0  0  0  0  0  0  0  0  0  0  0  0
    3.4699   -7.1388   -5.7512 H   0  0  0  0  0  0  0  0  0  0  0  0
    1.9426   -6.4191   -5.3015 H   0  0  0  0  0  0  0  0  0  0  0  0
    3.2494   -5.0476   -2.9462 C   0  0  2  0  0  0  0  0  0  0  0  0
    1.9031   -5.6905   -2.6552 C   0  0  0  0  0  0  0  0  0  0  0  0
    2.0000   -6.7552   -2.6981 H   0  0  0  0  0  0  0  0  0  0  0  0
    1.5733   -5.4013   -1.6793 H   0  0  0  0  0  0  0  0  0  0  0  0
    1.1886   -5.3678   -3.3834 H   0  0  0  0  0  0  0  0  0  0  0  0
    5.5096   -4.1570   -2.4951 C   0  0  2  0  0  0  0  0  0  0  0  0
    6.7632   -3.8520   -1.6915 C   0  0  0  0  0  0  0  0  0  0  0  0
    7.2489   -4.7680   -1.4272 H   0  0  0  0  0  0  0  0  0  0  0  0
    7.4269   -3.2531   -2.2795 H   0  0  0  0  0  0  0  0  0  0  0  0
    6.4963   -3.3203   -0.8021 H   0  0  0  0  0  0  0  0  0  0  0  0
    5.8646   -4.5235   -3.9366 C   0  0  2  0  0  0  0  0  0  0  0  0
    6.9807   -4.2647   -4.9355 C   0  0  0  0  0  0  0  0  0  0  0  0
    6.6183   -3.6327   -5.7193 H   0  0  0  0  0  0  0  0  0  0  0  0
    7.7987   -3.7849   -4.4400 H   0  0  0  0  0  0  0  0  0  0  0  0
    7.3106   -5.1941   -5.3506 H   0  0  0  0  0  0  0  0  0  0  0  0
  1  2  1  0  0  0  0
  2  3  1  0  0  0  0
  2 15  1  0  0  0  0
  3  5  1  0  0  0  0
  3  4  1  0  0  0  0
  5  6  1  0  0  0  0
  5 22  1  0  0  0  0
  6  7  1  0  0  0  0
  6 14  1  0  0  0  0
  7  8  1  0  0  0  0
  7 17  1  0  0  0  0
  8 10  1  0  0  0  0
  8  9  1  0  0  0  0
 10 12  1  0  0  0  0
 10 11  1  0  0  0  0
 12 14  1  0  0  0  0
 12 13  1  0  0  0  0
 14 15  1  0  0  0  0
 15 16  1  0  0  0  0
 17 19  1  0  0  0  0
 17 22  1  0  0  0  0
 17 24  1  0  0  0  0
 17 29  1  0  0  0  0
 17 34  1  0  0  0  0
 17 39  1  0  0  0  0
 17 44  1  0  0  0  0
 17 18  1  0  0  0  0
 19 22  2  0  0  0  0
 19 20  1  0  0  0  0
 19 21  1  0  0  0  0
 22 23  1  6  0  0  0
 24 29  1  0  0  0  0
 24 44  1  0  0  0  0
 24 25  1  6  0  0  0
 25 26  1  0  0  0  0
 25 27  1  0  0  0  0
 25 28  1  0  0  0  0
 29 34  1  0  0  0  0
 29 30  1  6  0  0  0
 30 31  1  0  0  0  0
 30 32  1  0  0  0  0
 30 33  1  0  0  0  0
 34 39  1  0  0  0  0
 34 35  1  1  0  0  0
 35 36  1  0  0  0  0
 35 37  1  0  0  0  0
 35 38  1  0  0  0  0
 39 44  1  0  0  0  0
 39 40  1  1  0  0  0
 40 41  1  0  0  0  0
 40 42  1  0  0  0  0
 40 43  1  0  0  0  0
 44 45  1  6  0  0  0
 45 46  1  0  0  0  0
 45 47  1  0  0  0  0
 45 48  1  0  0  0  0
M  END
$$$$
