
     RDKit          3D

 64 65  0  0  0  0  0  0  0  0999 V2000
    3.3401    1.7209   -0.0225 C   0  0  0  0  0  0  0  0  0  0  0  0
    2.2191    0.7358    0.0987 C   0  0  0  0  0  0  0  0  0  0  0  0
    1.0889    1.0226   -0.5556 N   0  0  0  0  0  0  0  0  0  0  0  0
    0.1792    0.0766   -0.3683 N   0  0  0  0  0  0  0  0  0  0  0  0
   -1.5345    0.0192   -1.1386 Pt  0  0  0  0  0  6  0  0  0  0  0  0
   -0.6829   -1.0989   -2.4151 C   0  0  0  0  0  0  0  0  0  0  0  0
   -0.9226    1.4541   -2.3235 C   0  0  0  0  0  0  0  0  0  0  0  0
   -2.9868   -0.0629   -2.3539 C   0  0  0  0  0  0  0  0  0  0  0  0
   -2.0011   -1.5421   -0.1439 P   0  0  0  0  0  5  0  0  0  0  0  0
   -1.4572   -1.3500    1.5759 C   0  0  0  0  0  0  0  0  0  0  0  0
   -0.9856   -2.9842   -0.4935 C   0  0  0  0  0  0  0  0  0  0  0  0
   -3.7573   -1.7040    0.0625 C   0  0  0  0  0  0  0  0  0  0  0  0
   -2.3090    1.3571   -0.0567 P   0  0  0  0  0  5  0  0  0  0  0  0
   -0.8707    2.4627    0.3020 C   0  0  0  0  0  0  0  0  0  0  0  0
   -3.2333    2.6437   -0.9958 C   0  0  0  0  0  0  0  0  0  0  0  0
   -2.7444    1.2248    1.6066 C   0  0  0  0  0  0  0  0  0  0  0  0
    0.7421   -0.8257    0.4182 N   0  0  0  0  0  0  0  0  0  0  0  0
    1.9910   -0.4645    0.7297 C   0  0  0  0  0  0  0  0  0  0  0  0
    2.7784   -1.3660    1.6111 C   0  0  0  0  0  0  0  0  0  0  0  0
    4.0783   -1.7914    0.9595 C   0  0  0  0  0  0  0  0  0  0  0  0
    5.2180   -0.9030    1.3390 C   0  0  0  0  0  0  0  0  0  0  0  0
    5.2957    0.3331    0.4649 C   0  0  0  0  0  0  0  0  0  0  0  0
    4.3798    1.3963    1.0011 C   0  0  0  0  0  0  0  0  0  0  0  0
    3.0067    2.7538    0.1398 H   0  0  0  0  0  0  0  0  0  0  0  0
    3.7962    1.7138   -1.0441 H   0  0  0  0  0  0  0  0  0  0  0  0
    0.3053   -1.4220   -2.1390 H   0  0  0  0  0  0  0  0  0  0  0  0
   -1.4246   -1.9178   -2.6520 H   0  0  0  0  0  0  0  0  0  0  0  0
   -0.5713   -0.6160   -3.4096 H   0  0  0  0  0  0  0  0  0  0  0  0
    0.1383    1.5904   -2.2009 H   0  0  0  0  0  0  0  0  0  0  0  0
   -1.6031    2.2721   -2.2939 H   0  0  0  0  0  0  0  0  0  0  0  0
   -1.0306    1.0344   -3.3784 H   0  0  0  0  0  0  0  0  0  0  0  0
   -3.8306    0.3639   -1.8191 H   0  0  0  0  0  0  0  0  0  0  0  0
   -3.2234   -1.1614   -2.4700 H   0  0  0  0  0  0  0  0  0  0  0  0
   -2.7517    0.3372   -3.3353 H   0  0  0  0  0  0  0  0  0  0  0  0
   -2.4455   -2.0850   -1.2572 H   0  0  0  0  0  0  0  0  0  0  0  0
   -2.2605   -1.6651    2.2565 H   0  0  0  0  0  0  0  0  0  0  0  0
   -0.6357   -2.0450    1.8659 H   0  0  0  0  0  0  0  0  0  0  0  0
   -1.0594   -0.3784    1.6100 H   0  0  0  0  0  0  0  0  0  0  0  0
   -0.0689   -3.0471    0.2070 H   0  0  0  0  0  0  0  0  0  0  0  0
   -0.4328   -3.1488   -1.4031 H   0  0  0  0  0  0  0  0  0  0  0  0
   -1.4399   -3.9501   -0.1363 H   0  0  0  0  0  0  0  0  0  0  0  0
   -4.1540   -2.7685    0.1708 H   0  0  0  0  0  0  0  0  0  0  0  0
   -4.4562   -1.0556   -0.5044 H   0  0  0  0  0  0  0  0  0  0  0  0
   -4.0619   -1.3739    1.1119 H   0  0  0  0  0  0  0  0  0  0  0  0
   -3.4957    0.7260   -0.1843 H   0  0  0  0  0  0  0  0  0  0  0  0
   -0.2927    1.8728    0.9903 H   0  0  0  0  0  0  0  0  0  0  0  0
   -1.3453    3.3591    0.7762 H   0  0  0  0  0  0  0  0  0  0  0  0
   -0.5283    2.6820   -0.6831 H   0  0  0  0  0  0  0  0  0  0  0  0
   -3.5976    2.3696   -1.9779 H   0  0  0  0  0  0  0  0  0  0  0  0
   -4.0799    3.0708   -0.4075 H   0  0  0  0  0  0  0  0  0  0  0  0
   -2.6528    3.5791   -1.1987 H   0  0  0  0  0  0  0  0  0  0  0  0
   -1.9830    1.5477    2.4136 H   0  0  0  0  0  0  0  0  0  0  0  0
   -3.2282    0.4495    2.1779 H   0  0  0  0  0  0  0  0  0  0  0  0
   -3.4505    2.1323    1.7690 H   0  0  0  0  0  0  0  0  0  0  0  0
    2.2017   -2.3063    1.7544 H   0  0  0  0  0  0  0  0  0  0  0  0
    2.9268   -0.9640    2.6313 H   0  0  0  0  0  0  0  0  0  0  0  0
    3.9333   -1.7233   -0.1513 H   0  0  0  0  0  0  0  0  0  0  0  0
    4.3195   -2.8629    1.1632 H   0  0  0  0  0  0  0  0  0  0  0  0
    5.1777   -0.5863    2.3997 H   0  0  0  0  0  0  0  0  0  0  0  0
    6.1915   -1.4330    1.2114 H   0  0  0  0  0  0  0  0  0  0  0  0
    5.1053    0.0999   -0.5969 H   0  0  0  0  0  0  0  0  0  0  0  0
    6.3407    0.7332    0.5047 H   0  0  0  0  0  0  0  0  0  0  0  0
    3.8988    1.1273    1.9664 H   0  0  0  0  0  0  0  0  0  0  0  0
    4.9365    2.3411    1.2302 H   0  0  0  0  0  0  0  0  0  0  0  0
  1  2  1  0
  2  3  2  0
  3  4  1  0
  4  5  1  0
  5  6  1  0
  5  7  1  0
  5  8  1  0
  5  9  1  0
  9 10  1  0
  9 11  1  0
  9 12  1  0
  5 13  1  0
 13 14  1  0
 13 15  1  0
 13 16  1  0
  4 17  1  0
 17 18  2  0
 18 19  1  0
 19 20  1  0
 20 21  1  0
 21 22  1  0
 22 23  1  0
 23  1  1  0
 18  2  1  0
  1 24  1  0
  1 25  1  0
  6 26  1  0
  6 27  1  0
  6 28  1  0
  7 29  1  0
  7 30  1  0
  7 31  1  0
  8 32  1  0
  8 33  1  0
  8 34  1  0
  9 35  1  0
 10 36  1  0
 10 37  1  0
 10 38  1  0
 11 39  1  0
 11 40  1  0
 11 41  1  0
 12 42  1  0
 12 43  1  0
 12 44  1  0
 13 45  1  0
 14 46  1  0
 14 47  1  0
 14 48  1  0
 15 49  1  0
 15 50  1  0
 15 51  1  0
 16 52  1  0
 16 53  1  0
 16 54  1  0
 19 55  1  0
 19 56  1  0
 20 57  1  0
 20 58  1  0
 21 59  1  0
 21 60  1  0
 22 61  1  0
 22 62  1  0
 23 63  1  0
 23 64  1  0
M  END
