
 OpenBabel09252516073D

 62 63  0  0  0  0  0  0  0  0999 V2000
    1.0174   -0.0490    0.0854 C   0  0  0  0  0  0  0  0  0  0  0  0
    0.3107    0.7901   -1.7287 Pt  0  0  0  0  0  0  0  0  0  0  0  0
    2.0417    0.0850   -2.7291 C   0  0  0  0  0  0  0  0  0  0  0  0
   -0.6887   -1.0246   -2.1788 C   0  0  0  0  0  0  0  0  0  0  0  0
   -0.3793    1.6094   -3.5000 N   0  0  0  0  0  0  0  0  0  0  0  0
   -1.1228    0.8519   -4.8672 N   0  0  0  0  0  0  0  0  0  0  0  0
   -1.2208    2.2545   -5.9482 C   0  0  0  0  0  0  0  0  0  0  0  0
   -1.8385    2.2720   -7.3187 C   0  0  0  0  0  0  0  0  0  0  0  0
   -3.2327    2.9107   -7.1807 C   0  0  0  0  0  0  0  0  0  0  0  0
   -3.0704    4.2716   -6.4946 C   0  0  0  0  0  0  0  0  0  0  0  0
   -2.2056    5.0961   -7.4249 C   0  0  0  0  0  0  0  0  0  0  0  0
   -0.7177    4.8414   -7.2687 C   0  0  0  0  0  0  0  0  0  0  0  0
   -0.3168    4.6641   -5.8103 C   0  0  0  0  0  0  0  0  0  0  0  0
   -0.6373    3.2673   -5.2815 C   0  0  0  0  0  0  0  0  0  0  0  0
   -0.2101    2.9148   -3.9222 N   0  0  0  0  0  0  0  0  0  0  0  0
   -1.6734    1.5983   -0.5819 P   0  0  0  0  0  4  0  0  0  0  0  0
   -1.2667    1.9482    1.1677 C   0  0  0  0  0  0  0  0  0  0  0  0
   -2.2628    3.1311   -1.3895 C   0  0  0  0  0  0  0  0  0  0  0  0
   -2.9848    0.3244   -0.6604 C   0  0  0  0  0  0  0  0  0  0  0  0
    1.4562    2.8701   -1.2128 P   0  0  0  0  0  4  0  0  0  0  0  0
    0.8114    3.5478    0.3601 C   0  0  0  0  0  0  0  0  0  0  0  0
    3.2514    2.5538   -1.0502 C   0  0  0  0  0  0  0  0  0  0  0  0
    1.1687    4.0752   -2.5596 C   0  0  0  0  0  0  0  0  0  0  0  0
    0.6607   -1.0537    0.1764 H   0  0  0  0  0  0  0  0  0  0  0  0
    0.6607    0.5321    0.9100 H   0  0  0  0  0  0  0  0  0  0  0  0
    2.0874   -0.0490    0.0854 H   0  0  0  0  0  0  0  0  0  0  0  0
    2.3864   -0.8112   -2.2570 H   0  0  0  0  0  0  0  0  0  0  0  0
    1.8039   -0.1196   -3.7521 H   0  0  0  0  0  0  0  0  0  0  0  0
    2.8085    0.8298   -2.6833 H   0  0  0  0  0  0  0  0  0  0  0  0
   -1.7383   -0.8397   -2.2738 H   0  0  0  0  0  0  0  0  0  0  0  0
   -0.3116   -1.4208   -3.0984 H   0  0  0  0  0  0  0  0  0  0  0  0
   -0.5205   -1.7292   -1.3913 H   0  0  0  0  0  0  0  0  0  0  0  0
   -1.2315    2.8283   -8.0021 H   0  0  0  0  0  0  0  0  0  0  0  0
   -1.9279    1.2738   -7.6934 H   0  0  0  0  0  0  0  0  0  0  0  0
   -3.8729    2.2788   -6.6013 H   0  0  0  0  0  0  0  0  0  0  0  0
   -3.6679    3.0430   -8.1492 H   0  0  0  0  0  0  0  0  0  0  0  0
   -2.6290    4.1759   -5.5246 H   0  0  0  0  0  0  0  0  0  0  0  0
   -4.0239    4.7380   -6.3597 H   0  0  0  0  0  0  0  0  0  0  0  0
   -2.4659    4.8128   -8.4233 H   0  0  0  0  0  0  0  0  0  0  0  0
   -2.3925    6.1313   -7.2295 H   0  0  0  0  0  0  0  0  0  0  0  0
   -0.4823    3.9357   -7.7875 H   0  0  0  0  0  0  0  0  0  0  0  0
   -0.1808    5.6727   -7.6755 H   0  0  0  0  0  0  0  0  0  0  0  0
    0.7424    4.8014   -5.7452 H   0  0  0  0  0  0  0  0  0  0  0  0
   -0.8437    5.3840   -5.2196 H   0  0  0  0  0  0  0  0  0  0  0  0
   -0.4999    2.6931    1.2135 H   0  0  0  0  0  0  0  0  0  0  0  0
   -2.1403    2.3041    1.6726 H   0  0  0  0  0  0  0  0  0  0  0  0
   -0.9220    1.0520    1.6398 H   0  0  0  0  0  0  0  0  0  0  0  0
   -2.5006    2.9265   -2.4125 H   0  0  0  0  0  0  0  0  0  0  0  0
   -3.1365    3.4870   -0.8845 H   0  0  0  0  0  0  0  0  0  0  0  0
   -1.4961    3.8760   -1.3436 H   0  0  0  0  0  0  0  0  0  0  0  0
   -3.2225    0.1198   -1.6834 H   0  0  0  0  0  0  0  0  0  0  0  0
   -2.6401   -0.5718   -0.1882 H   0  0  0  0  0  0  0  0  0  0  0  0
   -3.8584    0.6802   -0.1554 H   0  0  0  0  0  0  0  0  0  0  0  0
    0.9795    2.8432    1.1476 H   0  0  0  0  0  0  0  0  0  0  0  0
    1.3158    4.4637    0.5872 H   0  0  0  0  0  0  0  0  0  0  0  0
   -0.2382    3.7327    0.2650 H   0  0  0  0  0  0  0  0  0  0  0  0
    3.6284    2.1576   -1.9698 H   0  0  0  0  0  0  0  0  0  0  0  0
    3.7558    3.4697   -0.8230 H   0  0  0  0  0  0  0  0  0  0  0  0
    3.4195    1.8492   -0.2627 H   0  0  0  0  0  0  0  0  0  0  0  0
    1.5457    3.6789   -3.4793 H   0  0  0  0  0  0  0  0  0  0  0  0
    0.1191    4.2601   -2.6547 H   0  0  0  0  0  0  0  0  0  0  0  0
    1.6731    4.9911   -2.3325 H   0  0  0  0  0  0  0  0  0  0  0  0
  1  2  1  0  0  0  0
  1 24  1  0  0  0  0
  1 25  1  0  0  0  0
  1 26  1  0  0  0  0
  2  3  1  0  0  0  0
  2  4  1  0  0  0  0
  2  5  1  0  0  0  0
  2 16  1  0  0  0  0
  2 20  1  0  0  0  0
  3 27  1  0  0  0  0
  3 28  1  0  0  0  0
  3 29  1  0  0  0  0
  4 30  1  0  0  0  0
  4 31  1  0  0  0  0
  4 32  1  0  0  0  0
  5  6  1  0  0  0  0
  5 15  1  0  0  0  0
  6  7  2  0  0  0  0
  7  8  1  0  0  0  0
  7 14  1  0  0  0  0
  8  9  1  0  0  0  0
  8 33  1  0  0  0  0
  8 34  1  0  0  0  0
  9 10  1  0  0  0  0
  9 35  1  0  0  0  0
  9 36  1  0  0  0  0
 10 11  1  0  0  0  0
 10 37  1  0  0  0  0
 10 38  1  0  0  0  0
 11 12  1  0  0  0  0
 11 39  1  0  0  0  0
 11 40  1  0  0  0  0
 12 13  1  0  0  0  0
 12 41  1  0  0  0  0
 12 42  1  0  0  0  0
 13 14  1  0  0  0  0
 13 43  1  0  0  0  0
 13 44  1  0  0  0  0
 14 15  2  0  0  0  0
 16 17  1  0  0  0  0
 16 18  1  0  0  0  0
 16 19  1  0  0  0  0
 17 45  1  0  0  0  0
 17 46  1  0  0  0  0
 17 47  1  0  0  0  0
 18 48  1  0  0  0  0
 18 49  1  0  0  0  0
 18 50  1  0  0  0  0
 19 51  1  0  0  0  0
 19 52  1  0  0  0  0
 19 53  1  0  0  0  0
 20 21  1  0  0  0  0
 20 22  1  0  0  0  0
 20 23  1  0  0  0  0
 21 54  1  0  0  0  0
 21 55  1  0  0  0  0
 21 56  1  0  0  0  0
 22 57  1  0  0  0  0
 22 58  1  0  0  0  0
 22 59  1  0  0  0  0
 23 60  1  0  0  0  0
 23 61  1  0  0  0  0
 23 62  1  0  0  0  0
M  END
$$$$
