
 OpenBabel09252519183D

 23 24  0  0  1  0  0  0  0  0999 V2000
   10.0408   -1.0840   -7.7186 H   0  0  0  0  0  0  0  0  0  0  0  0
    9.4405   -0.4891   -7.0397 C   0  0  0  0  0  3  0  0  0  0  0  0
    9.9583   -0.1608   -5.7212 C   0  0  0  0  0  3  0  0  0  0  0  0
   10.9494   -0.5052   -5.4462 H   0  0  0  0  0  0  0  0  0  0  0  0
    9.0481    0.2828   -4.6703 C   0  0  0  0  0  3  0  0  0  0  0  0
    9.4146    0.2876   -3.6479 H   0  0  0  0  0  0  0  0  0  0  0  0
    7.5893    0.3079   -4.9103 C   0  0  0  0  0  3  0  0  0  0  0  0
    6.5674   -0.3021   -3.5972 S   0  0  0  0  0  0  0  0  0  0  0  0
    6.3835   -1.7300   -3.8109 O   0  0  0  0  0  0  0  0  0  0  0  0
    7.1616    0.1410   -2.3431 O   0  0  0  0  0  0  0  0  0  0  0  0
    4.9519    0.4745   -3.6863 C   0  0  2  0  0  0  0  0  0  0  0  0
    4.2583    0.0257   -2.9656 H   0  0  0  0  0  0  0  0  0  0  0  0
    4.4187    0.4050   -5.0581 N   0  0  0  0  0  0  0  0  0  0  0  0
    3.8137   -0.2964   -5.4664 H   0  0  0  0  0  0  0  0  0  0  0  0
    4.0090    1.7028   -5.0398 C   0  0  0  0  0  0  0  0  0  0  0  0
    3.2171    2.2779   -5.7418 O   0  0  0  0  0  0  0  0  0  0  0  0
    4.8718    1.9996   -3.7963 C   0  0  0  0  0  0  0  0  0  0  0  0
    4.3301    2.4875   -2.9822 H   0  0  0  0  0  0  0  0  0  0  0  0
    5.7954    2.5391   -4.0154 H   0  0  0  0  0  0  0  0  0  0  0  0
    7.1450    0.2413   -6.3098 C   0  0  0  0  0  3  0  0  0  0  0  0
    6.2886    0.8150   -6.6396 H   0  0  0  0  0  0  0  0  0  0  0  0
    8.0401   -0.2590   -7.3425 C   0  0  0  0  0  3  0  0  0  0  0  0
    7.6513   -0.4913   -8.3267 H   0  0  0  0  0  0  0  0  0  0  0  0
  1  2  1  0  0  0  0
  2  3  1  0  0  0  0
  2 22  1  0  0  0  0
  3  4  1  0  0  0  0
  3  5  1  0  0  0  0
  5  6  1  0  0  0  0
  5  7  1  0  0  0  0
  7  8  1  0  0  0  0
  7 20  1  0  0  0  0
  8  9  2  0  0  0  0
  8 10  2  0  0  0  0
 11 13  1  0  0  0  0
 11 17  1  0  0  0  0
 11 12  1  1  0  0  0
 11  8  1  0  0  0  0
 13 14  1  0  0  0  0
 13 15  1  0  0  0  0
 15 16  2  0  0  0  0
 15 17  1  0  0  0  0
 17 18  1  0  0  0  0
 17 19  1  0  0  0  0
 20 21  1  0  0  0  0
 20 22  1  0  0  0  0
 22 23  1  0  0  0  0
M  END
$$$$
