
 OpenBabel09252516123D

 76 82  0  0  1  0  0  0  0  0999 V2000
    1.0869    0.0290   -0.0400 H   0  0  0  0  0  0  0  0  0  0  0  0
    2.1569    0.0290   -0.0400 C   0  0  0  0  0  3  0  0  0  0  0  0
    2.6692   -1.3539   -0.4491 C   0  0  0  0  0  3  0  0  0  0  0  0
    2.2801   -2.0913    0.2215 H   0  0  0  0  0  0  0  0  0  0  0  0
    2.2389   -1.6461   -1.7803 C   0  0  0  0  0  3  0  0  0  0  0  0
    2.5792   -2.6278   -2.0357 H   0  0  0  0  0  0  0  0  0  0  0  0
    2.7264   -0.7321   -2.7644 C   0  0  0  0  0  3  0  0  0  0  0  0
    4.5563   -0.7363   -2.7478 P   0  0  0  0  0  0  0  0  0  0  0  0
    4.5505    0.7798   -1.7230 C   0  0  0  0  0  3  0  0  0  0  0  0
    3.8332    1.9056   -2.4716 C   0  0  0  0  0  3  0  0  0  0  0  0
    4.3174    2.0747   -3.4106 H   0  0  0  0  0  0  0  0  0  0  0  0
    2.4716    1.5346   -2.6974 C   0  0  0  0  0  3  0  0  0  0  0  0
    1.9965    2.3190   -3.2486 H   0  0  0  0  0  0  0  0  0  0  0  0
    1.7227    1.3091   -1.5017 C   0  0  0  0  0  3  0  0  0  0  0  0
    1.7288    2.1967   -0.9042 H   0  0  0  0  0  0  0  0  0  0  0  0
    2.3547    0.1592   -0.7139 C   0  0  0  0  0  3  0  0  0  0  0  0
    1.8205    0.0166    0.2022 H   0  0  0  0  0  0  0  0  0  0  0  0
    3.8156    0.5035   -0.4072 C   0  0  0  0  0  3  0  0  0  0  0  0
    3.8560    1.3727    0.2155 H   0  0  0  0  0  0  0  0  0  0  0  0
    4.5732   -0.6068   -4.5731 C   0  0  0  0  0  3  0  0  0  0  0  0
    3.8480   -1.8108   -5.1788 C   0  0  0  0  0  3  0  0  0  0  0  0
    4.3180   -2.7136   -4.8484 H   0  0  0  0  0  0  0  0  0  0  0  0
    2.4817   -1.8038   -4.7596 C   0  0  0  0  0  3  0  0  0  0  0  0
    2.0008   -2.6686   -5.1666 H   0  0  0  0  0  0  0  0  0  0  0  0
    1.7510   -0.6477   -5.1730 C   0  0  0  0  0  3  0  0  0  0  0  0
    1.7697   -0.5767   -6.2405 H   0  0  0  0  0  0  0  0  0  0  0  0
    2.3913    0.6034   -4.5670 C   0  0  0  0  0  3  0  0  0  0  0  0
    1.8711    1.4735   -4.9094 H   0  0  0  0  0  0  0  0  0  0  0  0
    3.8581    0.6784   -5.0027 C   0  0  0  0  0  3  0  0  0  0  0  0
    3.9339    0.8228   -6.5139 C   0  0  0  0  0  0  0  0  0  0  0  0
    5.1043    0.9060   -7.1089 N   0  0  0  0  0  0  0  0  0  0  0  0
    5.1777    1.0457   -8.5704 C   0  0  0  0  0  3  0  0  0  0  0  0
    3.7908    0.8201   -9.1771 C   0  0  0  0  0  3  0  0  0  0  0  0
    3.4317   -0.1479   -8.8963 H   0  0  0  0  0  0  0  0  0  0  0  0
    2.8917    1.8205   -8.6940 C   0  0  0  0  0  3  0  0  0  0  0  0
    1.9223    1.6271   -9.1036 H   0  0  0  0  0  0  0  0  0  0  0  0
    3.2659    3.1558   -9.0378 C   0  0  0  0  0  3  0  0  0  0  0  0
    3.3218    3.2478  -10.1024 H   0  0  0  0  0  0  0  0  0  0  0  0
    4.6316    3.4759   -8.4255 C   0  0  0  0  0  3  0  0  0  0  0  0
    4.9328    4.4604   -8.7169 H   0  0  0  0  0  0  0  0  0  0  0  0
    5.6587    2.4560   -8.9272 C   0  0  1  0  0  0  0  0  0  0  0  0
    5.7606    2.5423   -9.9889 H   0  0  0  0  0  0  0  0  0  0  0  0
    4.5422   -2.8315   -1.7286 Co  0  0  0  0  0  0  0  0  0  0  0  0
    6.8721   -2.8369   -1.7075 P   0  0  0  0  0  0  0  0  0  0  0  0
    6.8729   -1.0456   -1.3330 C   0  0  0  0  0  0  0  0  0  0  0  0
    5.9947   -0.7977   -0.7742 H   0  0  0  0  0  0  0  0  0  0  0  0
    7.7419   -0.8017   -0.7584 H   0  0  0  0  0  0  0  0  0  0  0  0
    6.8825   -0.4901   -2.2474 H   0  0  0  0  0  0  0  0  0  0  0  0
    6.8570   -4.0568   -0.3435 C   0  0  0  0  0  0  0  0  0  0  0  0
    5.9826   -4.6686   -0.4218 H   0  0  0  0  0  0  0  0  0  0  0  0
    7.7298   -4.6726   -0.4060 H   0  0  0  0  0  0  0  0  0  0  0  0
    6.8496   -3.5427    0.5948 H   0  0  0  0  0  0  0  0  0  0  0  0
    6.8866   -3.4082   -3.4460 C   0  0  0  0  0  0  0  0  0  0  0  0
    7.3981   -2.6908   -4.0529 H   0  0  0  0  0  0  0  0  0  0  0  0
    7.3894   -4.3507   -3.5075 H   0  0  0  0  0  0  0  0  0  0  0  0
    5.8806   -3.5172   -3.7939 H   0  0  0  0  0  0  0  0  0  0  0  0
    4.5256   -1.8122    0.3666 P   0  0  0  0  0  0  0  0  0  0  0  0
    6.1192   -2.6162    0.7703 C   0  0  0  0  0  0  0  0  0  0  0  0
    6.6840   -2.7593   -0.1271 H   0  0  0  0  0  0  0  0  0  0  0  0
    6.6715   -1.9949    1.4440 H   0  0  0  0  0  0  0  0  0  0  0  0
    5.9339   -3.5644    1.2302 H   0  0  0  0  0  0  0  0  0  0  0  0
    4.5078   -0.1668   -0.4341 C   0  0  0  0  0  0  0  0  0  0  0  0
    4.0062   -0.2342   -1.3768 H   0  0  0  0  0  0  0  0  0  0  0  0
    3.9938    0.5302    0.1944 H   0  0  0  0  0  0  0  0  0  0  0  0
    5.5131    0.1659   -0.5880 H   0  0  0  0  0  0  0  0  0  0  0  0
    2.9498   -2.6537    0.7635 C   0  0  0  0  0  0  0  0  0  0  0  0
    3.0832   -3.2722    1.6264 H   0  0  0  0  0  0  0  0  0  0  0  0
    2.1949   -1.9220    0.9624 H   0  0  0  0  0  0  0  0  0  0  0  0
    2.6499   -3.2591   -0.0663 H   0  0  0  0  0  0  0  0  0  0  0  0
    2.2165    0.6761   -2.4489 C   0  0  0  0  0  3  0  0  0  0  0  0
    2.6148    1.3689   -3.1604 H   0  0  0  0  0  0  0  0  0  0  0  0
    2.6698    1.0707   -1.0398 C   0  0  0  0  0  3  0  0  0  0  0  0
    3.7386    1.1065   -1.0038 H   0  0  0  0  0  0  0  0  0  0  0  0
    5.9363   -0.7395   -2.7353 H   0  0  0  0  0  0  0  0  0  0  0  0
    8.2521   -2.8401   -1.6950 H   0  0  0  0  0  0  0  0  0  0  0  0
    4.5158   -1.2085    1.6075 H   0  0  0  0  0  0  0  0  0  0  0  0
  1  2  1  0  0  0  0
  2  3  1  0  0  0  0
  2 72  1  0  0  0  0
  3  4  1  0  0  0  0
  3  5  1  0  0  0  0
  5  6  1  0  0  0  0
  5  7  1  0  0  0  0
  7  8  1  0  0  0  0
  7 70  1  0  0  0  0
  8  9  1  0  0  0  0
  8 20  1  0  0  0  0
  8 43  1  0  0  0  0
  8 74  1  0  0  0  0
  9 10  1  0  0  0  0
  9 18  1  0  0  0  0
 10 11  1  0  0  0  0
 10 12  1  0  0  0  0
 12 13  1  0  0  0  0
 12 14  1  0  0  0  0
 14 15  1  0  0  0  0
 14 16  1  0  0  0  0
 16 17  1  0  0  0  0
 16 18  1  0  0  0  0
 18 19  1  0  0  0  0
 20 21  1  0  0  0  0
 20 29  1  0  0  0  0
 21 22  1  0  0  0  0
 21 23  1  0  0  0  0
 23 24  1  0  0  0  0
 23 25  1  0  0  0  0
 25 26  1  0  0  0  0
 25 27  1  0  0  0  0
 27 28  1  0  0  0  0
 27 29  1  0  0  0  0
 29 30  1  0  0  0  0
 30 31  2  0  0  0  0
 30 43  1  0  0  0  0
 31 32  1  0  0  0  0
 32 33  1  0  0  0  0
 32 41  1  0  0  0  0
 33 34  1  0  0  0  0
 33 35  1  0  0  0  0
 35 36  1  0  0  0  0
 35 37  1  0  0  0  0
 37 38  1  0  0  0  0
 37 39  1  0  0  0  0
 39 40  1  0  0  0  0
 39 41  1  0  0  0  0
 41 42  1  6  0  0  0
 41 43  1  0  0  0  0
 42 43  1  0  0  0  0
 43 44  1  0  0  0  0
 43 57  1  0  0  0  0
 44 45  1  0  0  0  0
 44 49  1  0  0  0  0
 44 53  1  0  0  0  0
 44 75  1  0  0  0  0
 45 46  1  0  0  0  0
 45 47  1  0  0  0  0
 45 48  1  0  0  0  0
 49 50  1  0  0  0  0
 49 51  1  0  0  0  0
 49 52  1  0  0  0  0
 53 54  1  0  0  0  0
 53 55  1  0  0  0  0
 53 56  1  0  0  0  0
 57 58  1  0  0  0  0
 57 62  1  0  0  0  0
 57 66  1  0  0  0  0
 57 76  1  0  0  0  0
 58 59  1  0  0  0  0
 58 60  1  0  0  0  0
 58 61  1  0  0  0  0
 62 63  1  0  0  0  0
 62 64  1  0  0  0  0
 62 65  1  0  0  0  0
 66 67  1  0  0  0  0
 66 68  1  0  0  0  0
 66 69  1  0  0  0  0
 70 71  1  0  0  0  0
 70 72  1  0  0  0  0
 72 73  1  0  0  0  0
M  END
$$$$
