
  --CCDC--092525    3D                              

 48 56  0  0  0  0  0  0  0  0999 V2000
    4.6534   -0.7580   -0.1268 H      0
    3.7459   -0.4628   -0.6371 C      0
    2.5623   -0.5578    0.0705 C      0
    2.4969   -1.0008    1.0532 H      0
    1.4541   -0.0669   -0.5076 C      0
    1.5503    0.6165   -1.7166 C      0
    0.4248    1.3784   -1.9568 C      0
    0.4850    2.2112   -3.0732 C      0
   -0.2541    2.9944   -3.2219 H      0
    1.4906    2.0400   -4.0317 C      0
    1.4567    2.6177   -4.9538 H      0
    2.5314    1.1714   -3.8347 C      0
    3.2558    0.9849   -4.6177 H      0
    2.6731    0.5818   -2.5555 C      0
    3.8059   -0.0137   -1.9389 C      0
    4.7539   -0.0566   -2.4610 H      0
   -1.2712    1.2830   -0.7458 Ir     0
   -1.5303    0.1959   -2.8890 Cl     0
   -0.9327   -0.7825   -0.7537 C      0
   -1.7247   -1.2881   -0.1832 H      0
   -0.6662   -1.1366   -1.7534 H      0
    0.0431   -0.1162   -0.0092 C      0
   -0.0907    0.1135    1.0583 H      0
   -1.3206    2.3936    0.8856 C      0
   -0.3397    2.3929    2.0747 C      0
   -0.3738    1.4031    2.5321 H      0
   -0.6204    3.1211    2.8338 H      0
    0.6643    2.5729    1.7118 H      0
   -1.2341    3.1981   -0.4437 C      0
   -2.3552    2.8354   -1.3641 C      0
   -2.0474    3.4587   -2.1937 H      0
   -3.3685    3.2847   -1.2565 H      0
   -2.1747    1.9268   -1.9518 H      0
   -2.3552    2.8354   -1.3641 C      0
   -3.1229    1.8436   -0.4769 C      0
   -3.9639    1.4708   -1.0562 H      0
   -3.8008    2.2222    0.3354 H      0
   -2.7056    0.7968   -0.5203 H      0
   -3.1710    1.8502   -0.5057 C      0
   -2.2208    1.9780    0.8241 C      0
   -2.6088    1.2774    1.5480 H      0
   -2.2888    2.9625    1.3686 H      0
   -1.2252    1.5008    0.6360 H      0
   -2.6127    1.4467    0.7719 C      0
   -3.1267    0.3097    1.6813 C      0
   -3.7918   -0.3031    1.0774 H      0
   -3.7222    0.6412    2.5494 H      0
   -2.3092   -0.3406    2.0137 H      0
  1  2  1
  2  3  4
  3  4  1
  3  5  4
  5  6  4
  6  7  4
  7  8  4
  8  9  1
  8 10  4
 10 11  1
 10 12  4
 12 13  1
 12 14  4
  6 14  4
 14 15  4
  2 15  4
 15 16  1
  7 17  1
 17 18  1
 17 19  1
 19 20  1
 19 21  1
 19 22  2
  5 22  1
 17 22  1
 22 23  1
 17 24  1
 24 25  1
 25 26  1
 25 27  1
 25 28  1
 24 29  4
 17 29  1
 29 30  1
 30 31  1
 30 32  1
 30 33  1
 29 34  4
 17 34  1
 34 35  1
 35 36  1
 35 37  1
 35 38  1
 34 39  4
 17 39  1
 39 40  1
 40 41  1
 40 42  1
 40 43  1
 39 44  4
 24 44  4
 17 44  1
 44 45  1
 45 46  1
 45 47  1
 45 48  1
M  END
$$$$
