
  --CCDC--092525    3D                              

 73 79  0  0  0  0  0  0  0  0999 V2000
   -1.4786    0.7217   -0.2730 H      0
   -1.1091    0.5159   -1.3950 C      0
   -1.5475   -0.7894   -1.5628 C      0
   -1.7388   -1.2959   -2.8295 C      0
   -1.4110   -0.5228   -3.9193 C      0
   -0.7716    0.6946   -3.7531 C      0
   -0.4825    1.2019   -2.4846 C      0
    0.4983    2.2552   -2.4051 N      0
    0.9012    2.5211   -1.1752 C      0
    1.9106    3.4669   -0.5306 C      0
    2.7933    4.2863   -1.2355 C      0
    3.6316    5.1630   -0.5677 C      0
    3.6035    5.2450    0.8064 C      0
    2.7484    4.4374    1.5358 C      0
    1.9024    3.5238    0.9015 C      0
    0.7798    2.3887    1.7904 P      0
    1.6559    1.3348    2.9769 C      0
    1.0384    0.2135    3.5165 C      0
    1.6692   -0.5560    4.4794 C      0
    2.9146   -0.1989    4.9449 C      0
    3.5225    0.9363    4.4575 C      0
    2.8963    1.7069    3.4917 C      0
   -0.2663    3.2087    3.0216 C      0
   -1.1535    2.4434    3.7755 C      0
   -1.9120    3.0266    4.7768 C      0
   -1.7841    4.3705    5.0515 C      0
   -0.8901    5.1338    4.3334 C      0
   -0.1266    4.5573    3.3320 C      0
   -0.2261    1.4929   -0.0894 Co     0
   -1.6111    3.3475    0.1264 P      0
   -2.5394    3.3475   -1.4261 C      0
   -0.7797    4.9552    0.0898 C      0
   -2.9505    3.2938    1.3435 C      0
    1.3330   -0.2188    0.1623 P      0
    1.7438   -0.7555   -1.5177 C      0
    0.6565   -1.7178    0.9217 C      0
    3.0193    0.1564    0.7063 C      0
   -1.7847   -1.3966   -0.6955 H      0
   -2.1527   -2.2895   -2.9663 H      0
   -1.6230   -0.8862   -4.9193 H      0
   -0.4487    1.2460   -4.6300 H      0
    2.8178    4.2412   -2.3193 H      0
    4.3118    5.7930   -1.1314 H      0
    4.2563    5.9434    1.3196 H      0
    2.7402    4.5095    2.6183 H      0
    0.0438   -0.0602    3.1809 H      0
    1.1785   -1.4406    4.8717 H      0
    3.4111   -0.8045    5.6958 H      0
    4.4972    1.2297    4.8332 H      0
    3.3897    2.6023    3.1355 H      0
   -1.2579    1.3829    3.5728 H      0
   -2.6090    2.4224    5.3479 H      0
   -2.3830    4.8255    5.8335 H      0
   -0.7816    6.1903    4.5551 H      0
    0.5868    5.1639    2.7840 H      0
   -3.2267    4.1900   -1.4645 H      0
   -3.1189    2.4324   -1.5290 H      0
   -1.8663    3.4200   -2.2779 H      0
   -1.5071    5.7631    0.1328 H      0
   -0.2143    5.0649   -0.8333 H      0
   -0.0863    5.0821    0.9118 H      0
   -3.1403    2.2753    1.6757 H      0
   -2.7562    3.9210    2.2048 H      0
   -3.8660    3.6719    0.8934 H      0
    0.9565   -1.3569   -1.9607 H      0
    2.6519   -1.3548   -1.5116 H      0
    1.9152    0.1039   -2.1625 H      0
    0.0246   -2.2457    0.2106 H      0
    1.4592   -2.3908    1.2157 H      0
    0.0546   -1.5114    1.7992 H      0
    3.1583    1.2239    0.8642 H      0
    3.7264   -0.1619   -0.0569 H      0
    3.2877   -0.3841    1.6083 H      0
  1  2  1
  2  3  4
  3  4  4
  4  5  4
  5  6  4
  6  7  4
  2  7  4
  7  8  1
  8  9  2
  9 10  1
 10 11  4
 11 12  4
 12 13  4
 13 14  4
 14 15  4
 10 15  4
 15 16  1
 16 17  1
 17 18  4
 18 19  4
 19 20  4
 20 21  4
 21 22  4
 17 22  4
 16 23  1
 23 24  4
 24 25  4
 25 26  4
 26 27  4
 27 28  4
 23 28  4
 16 29  1
  1 29  1
  2 29  1
  9 29  1
 29 30  1
 30 31  1
 30 32  1
 30 33  1
 29 34  1
 34 35  1
 34 36  1
 34 37  1
  3 38  1
  4 39  1
  5 40  1
  6 41  1
 11 42  1
 12 43  1
 13 44  1
 14 45  1
 18 46  1
 19 47  1
 20 48  1
 21 49  1
 22 50  1
 24 51  1
 25 52  1
 26 53  1
 27 54  1
 28 55  1
 31 56  1
 31 57  1
 31 58  1
 32 59  1
 32 60  1
 32 61  1
 33 62  1
 33 63  1
 33 64  1
 35 65  1
 35 66  1
 35 67  1
 36 68  1
 36 69  1
 36 70  1
 37 71  1
 37 72  1
 37 73  1
M  END
$$$$
