
     RDKit          3D

 28 28  0  0  0  0  0  0  0  0999 V2000
   -3.0723   -1.2885   -0.3442 C   0  0  0  0  0  0  0  0  0  0  0  0
   -2.6644   -0.2822    0.7255 C   0  0  0  0  0  0  0  0  0  0  0  0
   -1.8580    0.8840    0.1535 C   0  0  0  0  0  0  0  0  0  0  0  0
   -0.4063    0.6783   -0.0132 C   0  0  0  0  0  0  0  0  0  0  0  0
    0.2893   -0.4414    0.2524 C   0  0  0  0  0  0  0  0  0  0  0  0
    1.7413   -0.5606    0.0442 C   0  0  0  0  0  0  0  0  0  0  0  0
    2.2518   -1.7528   -0.4910 C   0  0  0  0  0  0  0  0  0  0  0  0
    3.6267   -1.9141   -0.6779 C   0  0  0  0  0  0  0  0  0  0  0  0
    4.4918   -0.8882   -0.3194 C   0  0  0  0  0  0  0  0  0  0  0  0
    5.8100   -1.0441   -0.4968 F   0  0  0  0  0  0  0  0  0  0  0  0
    4.0091    0.2944    0.2265 C   0  0  0  0  0  0  0  0  0  0  0  0
    2.6341    0.4570    0.4138 C   0  0  0  0  0  0  0  0  0  0  0  0
   -2.4565    2.0648   -0.1666 C   0  0  0  0  0  0  0  0  0  0  0  0
   -3.8633    2.2560   -0.0204 C   0  0  0  0  0  0  0  0  0  0  0  0
   -5.0088    2.3968    0.1020 N   0  0  0  0  0  0  0  0  0  0  0  0
   -1.7305    3.1809   -0.6802 C   0  0  0  0  0  0  0  0  0  0  0  0
   -1.1265    4.0821   -1.0927 N   0  0  0  0  0  0  0  0  0  0  0  0
   -3.6514   -2.1008    0.1070 H   0  0  0  0  0  0  0  0  0  0  0  0
   -2.2030   -1.7323   -0.8390 H   0  0  0  0  0  0  0  0  0  0  0  0
   -3.6959   -0.8181   -1.1117 H   0  0  0  0  0  0  0  0  0  0  0  0
   -3.5719    0.0724    1.2282 H   0  0  0  0  0  0  0  0  0  0  0  0
   -2.1068   -0.7849    1.5246 H   0  0  0  0  0  0  0  0  0  0  0  0
    0.1617    1.5207   -0.4109 H   0  0  0  0  0  0  0  0  0  0  0  0
   -0.1861   -1.3467    0.6175 H   0  0  0  0  0  0  0  0  0  0  0  0
    1.5831   -2.5623   -0.7757 H   0  0  0  0  0  0  0  0  0  0  0  0
    4.0260   -2.8312   -1.0988 H   0  0  0  0  0  0  0  0  0  0  0  0
    4.7037    1.0797    0.5073 H   0  0  0  0  0  0  0  0  0  0  0  0
    2.2728    1.3810    0.8592 H   0  0  0  0  0  0  0  0  0  0  0  0
  1  2  1  0
  2  3  1  0
  3  4  1  0
  4  5  2  3
  5  6  1  0
  6  7  2  0
  7  8  1  0
  8  9  2  0
  9 10  1  0
  9 11  1  0
 11 12  2  0
  3 13  2  3
 13 14  1  0
 14 15  3  0
 13 16  1  0
 16 17  3  0
 12  6  1  0
  1 18  1  0
  1 19  1  0
  1 20  1  0
  2 21  1  0
  2 22  1  0
  4 23  1  0
  5 24  1  0
  7 25  1  0
  8 26  1  0
 11 27  1  0
 12 28  1  0
M  END
