
 OpenBabel09252515303D

 32 35  0  0  0  0  0  0  0  0999 V2000
    1.7364    1.1841   -0.7244 H   0  0  0  0  0  0  0  0  0  0  0  0
    2.2728    0.4105   -0.1856 C   0  0  0  0  0  3  0  0  0  0  0  0
    1.6717   -0.9046   -0.0676 C   0  0  0  0  0  3  0  0  0  0  0  0
    0.6957   -1.0924   -0.4992 H   0  0  0  0  0  0  0  0  0  0  0  0
    2.4829   -2.0180    0.3847 C   0  0  0  0  0  3  0  0  0  0  0  0
    2.0255   -2.9908    0.5111 H   0  0  0  0  0  0  0  0  0  0  0  0
    3.9091   -1.8325    0.5843 C   0  0  0  0  0  3  0  0  0  0  0  0
    4.5414   -0.4950    0.6158 C   0  0  0  0  0  3  0  0  0  0  0  0
    3.6984    0.5920    0.0711 C   0  0  0  0  0  3  0  0  0  0  0  0
    4.1702    1.4072   -0.4596 H   0  0  0  0  0  0  0  0  0  0  0  0
    5.9851   -0.3897    0.9641 C   0  0  0  0  0  0  0  0  0  0  0  0
    6.7119   -1.5405    0.9280 C   0  0  0  0  0  0  0  0  0  0  0  0
    6.0842   -2.8686    0.6337 C   0  0  0  0  0  0  0  0  0  0  0  0
    6.7522   -3.8912    0.5008 O   0  0  0  0  0  0  0  0  0  0  0  0
    4.7237   -2.9205    0.5756 N   0  0  0  0  0  0  0  0  0  0  0  0
    4.3357   -3.8427    0.4303 H   0  0  0  0  0  0  0  0  0  0  0  0
    8.1871   -1.6094    1.2400 C   0  0  0  0  0  0  0  0  0  0  0  0
    8.7461   -1.4037    0.3178 H   0  0  0  0  0  0  0  0  0  0  0  0
    8.4854   -2.6119    1.5681 H   0  0  0  0  0  0  0  0  0  0  0  0
    8.6011   -0.6373    2.3357 C   0  0  0  0  0  0  0  0  0  0  0  0
    9.6964   -0.6000    2.3784 H   0  0  0  0  0  0  0  0  0  0  0  0
    8.2567   -1.0094    3.3092 H   0  0  0  0  0  0  0  0  0  0  0  0
    8.0309    0.7236    2.1123 C   0  0  0  0  0  3  0  0  0  0  0  0
    8.7105    1.8705    2.7035 C   0  0  0  0  0  3  0  0  0  0  0  0
    9.6693    1.7473    3.1926 H   0  0  0  0  0  0  0  0  0  0  0  0
    8.0683    3.1669    2.7235 C   0  0  0  0  0  3  0  0  0  0  0  0
    8.5273    3.9957    3.2472 H   0  0  0  0  0  0  0  0  0  0  0  0
    6.7689    3.3206    2.1096 C   0  0  0  0  0  3  0  0  0  0  0  0
    6.2365    4.2599    2.1936 H   0  0  0  0  0  0  0  0  0  0  0  0
    6.1797    2.2206    1.3609 C   0  0  0  0  0  3  0  0  0  0  0  0
    5.4975    2.5060    0.5775 H   0  0  0  0  0  0  0  0  0  0  0  0
    6.6936    0.8375    1.4572 C   0  0  0  0  0  3  0  0  0  0  0  0
  1  2  1  0  0  0  0
  2  3  1  0  0  0  0
  2  9  1  0  0  0  0
  3  4  1  0  0  0  0
  3  5  1  0  0  0  0
  5  6  1  0  0  0  0
  5  7  1  0  0  0  0
  7  8  1  0  0  0  0
  7 15  1  0  0  0  0
  8  9  1  0  0  0  0
  8 11  1  0  0  0  0
  9 10  1  0  0  0  0
 11 12  2  0  0  0  0
 11 32  1  0  0  0  0
 12 13  1  0  0  0  0
 12 17  1  0  0  0  0
 13 14  2  0  0  0  0
 13 15  1  0  0  0  0
 15 16  1  0  0  0  0
 17 18  1  0  0  0  0
 17 19  1  0  0  0  0
 17 20  1  0  0  0  0
 20 21  1  0  0  0  0
 20 22  1  0  0  0  0
 20 23  1  0  0  0  0
 23 24  1  0  0  0  0
 23 32  1  0  0  0  0
 24 25  1  0  0  0  0
 24 26  1  0  0  0  0
 26 27  1  0  0  0  0
 26 28  1  0  0  0  0
 28 29  1  0  0  0  0
 28 30  1  0  0  0  0
 30 31  1  0  0  0  0
 30 32  1  0  0  0  0
M  END
$$$$
