
 OpenBabel09252519443D

 49 54  0  0  0  0  0  0  0  0999 V2000
    0.9246    0.0234   -0.0614 C   0  0  0  0  0  0  0  0  0  0  0  0
    0.4179   -0.4963    1.2742 C   0  0  0  0  0  0  0  0  0  0  0  0
    0.7358   -1.7096    1.6713 N   0  0  0  0  0  0  0  0  0  0  0  0
    1.5809   -2.5627    0.8235 C   0  0  0  0  0  0  0  0  0  0  0  0
    2.8476   -2.9313    1.5785 C   0  0  0  0  0  0  0  0  0  0  0  0
    2.4804   -3.6832    2.8474 C   0  0  0  0  0  0  0  0  0  0  0  0
    1.7454   -4.9070    2.4966 N   0  0  0  0  0  0  0  0  0  0  0  0
    2.3311   -6.0653    2.7314 C   0  0  0  0  0  0  0  0  0  0  0  0
    1.7102   -7.1983    2.4049 C   0  0  0  0  0  0  0  0  0  0  0  0
    0.4349   -7.1597    1.8005 C   0  0  0  0  0  0  0  0  0  0  0  0
   -0.1472   -5.9775    1.5680 O   0  0  0  0  0  0  0  0  0  0  0  0
    0.4701   -4.8636    1.9045 Cu  0  0  0  0  0  0  0  0  0  0  0  0
    0.6484   -3.7909    0.2498 O   0  0  0  0  0  0  0  0  0  0  0  0
    1.2807   -2.5201    0.2921 C   0  0  0  0  0  0  0  0  0  0  0  0
    2.6318   -2.3835    0.7163 C   0  0  0  0  0  0  0  0  0  0  0  0
    3.1307   -1.1080    1.0272 C   0  0  0  0  0  0  0  0  0  0  0  0
    2.4675   -0.0461    0.6748 C   0  0  0  0  0  0  0  0  0  0  0  0
    1.2599   -0.1722   -0.0248 C   0  0  0  0  0  0  0  0  0  0  0  0
    0.6071   -1.4280   -0.0732 C   0  0  0  0  0  0  0  0  0  0  0  0
   -0.2230   -8.3653    1.4668 C   0  0  0  0  0  0  0  0  0  0  0  0
    0.3406   -9.5669    1.7089 C   0  0  0  0  0  0  0  0  0  0  0  0
    1.6177   -9.6730    2.3057 C   0  0  0  0  0  0  0  0  0  0  0  0
    2.1970  -10.9257    2.5539 C   0  0  0  0  0  0  0  0  0  0  0  0
    3.4305  -10.9979    3.1322 C   0  0  0  0  0  0  0  0  0  0  0  0
    4.1243   -9.8451    3.4815 C   0  0  0  0  0  0  0  0  0  0  0  0
    3.5872   -8.6106    3.2538 C   0  0  0  0  0  0  0  0  0  0  0  0
    2.3268   -8.5032    2.6626 C   0  0  0  0  0  0  0  0  0  0  0  0
    0.5679    1.0205   -0.2146 H   0  0  0  0  0  0  0  0  0  0  0  0
    0.5679   -0.6079   -0.8483 H   0  0  0  0  0  0  0  0  0  0  0  0
    1.9946    0.0234   -0.0614 H   0  0  0  0  0  0  0  0  0  0  0  0
    0.3958   -2.0583    2.5675 H   0  0  0  0  0  0  0  0  0  0  0  0
    1.0459   -3.4535    0.5681 H   0  0  0  0  0  0  0  0  0  0  0  0
    1.8394   -2.0334   -0.0698 H   0  0  0  0  0  0  0  0  0  0  0  0
    3.4627   -3.5523    0.9613 H   0  0  0  0  0  0  0  0  0  0  0  0
    3.3826   -2.0406    1.8339 H   0  0  0  0  0  0  0  0  0  0  0  0
    3.3720   -3.9427    3.3789 H   0  0  0  0  0  0  0  0  0  0  0  0
    1.8652   -3.0622    3.4646 H   0  0  0  0  0  0  0  0  0  0  0  0
    1.4097   -4.6423    1.5705 H   0  0  0  0  0  0  0  0  0  0  0  0
    3.3010   -6.0951    3.1824 H   0  0  0  0  0  0  0  0  0  0  0  0
    3.2620   -3.2444    0.7976 H   0  0  0  0  0  0  0  0  0  0  0  0
    4.0567   -1.0097    1.5542 H   0  0  0  0  0  0  0  0  0  0  0  0
    2.8444    0.9250    0.9193 H   0  0  0  0  0  0  0  0  0  0  0  0
    0.8335    0.6753   -0.5195 H   0  0  0  0  0  0  0  0  0  0  0  0
   -1.1905   -8.3240    1.0116 H   0  0  0  0  0  0  0  0  0  0  0  0
   -0.1897  -10.4576    1.4437 H   0  0  0  0  0  0  0  0  0  0  0  0
    1.6737  -11.8211    2.2907 H   0  0  0  0  0  0  0  0  0  0  0  0
    3.8700  -11.9553    3.3196 H   0  0  0  0  0  0  0  0  0  0  0  0
    5.0906   -9.9261    3.9339 H   0  0  0  0  0  0  0  0  0  0  0  0
    4.1296   -7.7297    3.5272 H   0  0  0  0  0  0  0  0  0  0  0  0
  1  2  1  0  0  0  0
  1 28  1  0  0  0  0
  1 29  1  0  0  0  0
  1 30  1  0  0  0  0
  2  3  2  0  0  0  0
  2 19  1  0  0  0  0
  3  4  1  0  0  0  0
  3 12  1  0  0  0  0
  3 31  1  0  0  0  0
  4  5  1  0  0  0  0
  4 32  1  0  0  0  0
  4 33  1  0  0  0  0
  5  6  1  0  0  0  0
  5 34  1  0  0  0  0
  5 35  1  0  0  0  0
  6  7  1  0  0  0  0
  6 36  1  0  0  0  0
  6 37  1  0  0  0  0
  7  8  2  0  0  0  0
  7 12  1  0  0  0  0
  7 38  1  0  0  0  0
  8  9  1  0  0  0  0
  8 39  1  0  0  0  0
  9 10  1  0  0  0  0
  9 27  2  0  0  0  0
 10 11  1  0  0  0  0
 10 20  2  0  0  0  0
 11 12  1  0  0  0  0
 12 13  1  0  0  0  0
 13 14  1  0  0  0  0
 14 15  1  0  0  0  0
 14 19  2  0  0  0  0
 15 16  2  0  0  0  0
 15 40  1  0  0  0  0
 16 17  1  0  0  0  0
 16 41  1  0  0  0  0
 17 18  2  0  0  0  0
 17 42  1  0  0  0  0
 18 19  1  0  0  0  0
 18 43  1  0  0  0  0
 20 21  1  0  0  0  0
 20 44  1  0  0  0  0
 21 22  2  0  0  0  0
 21 45  1  0  0  0  0
 22 23  1  0  0  0  0
 22 27  1  0  0  0  0
 23 24  2  0  0  0  0
 23 46  1  0  0  0  0
 24 25  1  0  0  0  0
 24 47  1  0  0  0  0
 25 26  2  0  0  0  0
 25 48  1  0  0  0  0
 26 27  1  0  0  0  0
 26 49  1  0  0  0  0
M  END
$$$$
