
     RDKit          3D

 28 28  0  0  0  0  0  0  0  0999 V2000
   -0.5813    0.0030   -0.5261 C   0  0  0  0  0  0  0  0  0  0  0  0
   -2.0046   -0.3765   -0.4376 C   0  0  0  0  0  0  0  0  0  0  0  0
   -2.9541    0.2148   -1.2146 C   0  0  0  0  0  0  0  0  0  0  0  0
   -4.3326   -0.1419   -1.1156 C   0  0  0  0  0  0  0  0  0  0  0  0
   -5.4502   -0.4407   -1.0230 N   0  0  0  0  0  0  0  0  0  0  0  0
   -2.6456    1.2341   -2.1646 C   0  0  0  0  0  0  0  0  0  0  0  0
   -2.3793    2.0589   -2.9366 N   0  0  0  0  0  0  0  0  0  0  0  0
   -2.3688   -1.4836    0.5517 C   0  0  0  0  0  0  0  0  0  0  0  0
   -2.5666   -0.9570    1.9684 C   0  0  0  0  0  0  0  0  0  0  0  0
    0.4370   -0.4965    0.1961 C   0  0  0  0  0  0  0  0  0  0  0  0
    1.8308   -0.0482    0.0477 C   0  0  0  0  0  0  0  0  0  0  0  0
    2.4156    0.1670   -1.2096 C   0  0  0  0  0  0  0  0  0  0  0  0
    3.7511    0.5646   -1.3101 C   0  0  0  0  0  0  0  0  0  0  0  0
    4.5043    0.7365   -0.1557 C   0  0  0  0  0  0  0  0  0  0  0  0
    5.7850    1.1159   -0.2529 F   0  0  0  0  0  0  0  0  0  0  0  0
    3.9494    0.5141    1.0982 C   0  0  0  0  0  0  0  0  0  0  0  0
    2.6142    0.1163    1.1999 C   0  0  0  0  0  0  0  0  0  0  0  0
   -0.3304    0.7856   -1.2437 H   0  0  0  0  0  0  0  0  0  0  0  0
   -3.2854   -2.0021    0.2464 H   0  0  0  0  0  0  0  0  0  0  0  0
   -1.6104   -2.2753    0.5451 H   0  0  0  0  0  0  0  0  0  0  0  0
   -1.6592   -0.4857    2.3584 H   0  0  0  0  0  0  0  0  0  0  0  0
   -3.3750   -0.2193    2.0063 H   0  0  0  0  0  0  0  0  0  0  0  0
   -2.8315   -1.7798    2.6404 H   0  0  0  0  0  0  0  0  0  0  0  0
    0.2893   -1.2529    0.9609 H   0  0  0  0  0  0  0  0  0  0  0  0
    1.8441    0.0188   -2.1230 H   0  0  0  0  0  0  0  0  0  0  0  0
    4.2073    0.7359   -2.2799 H   0  0  0  0  0  0  0  0  0  0  0  0
    4.5575    0.6503    1.9867 H   0  0  0  0  0  0  0  0  0  0  0  0
    2.1895   -0.0547    2.1868 H   0  0  0  0  0  0  0  0  0  0  0  0
  1  2  1  0
  2  3  2  0
  3  4  1  0
  4  5  3  0
  3  6  1  0
  6  7  3  0
  2  8  1  0
  8  9  1  0
  1 10  2  0
 10 11  1  0
 11 12  2  0
 12 13  1  0
 13 14  2  0
 14 15  1  0
 14 16  1  0
 16 17  2  0
 17 11  1  0
  1 18  1  0
  8 19  1  0
  8 20  1  0
  9 21  1  0
  9 22  1  0
  9 23  1  0
 10 24  1  0
 12 25  1  0
 13 26  1  0
 16 27  1  0
 17 28  1  0
M  END
