
  --CCDC--092525    3D                              

 19 24  0  0  0  0  0  0  0  0999 V2000
   -0.0840    0.1096   -0.0008 H      0
   -1.6283    0.4173   -0.0025 Si     0
   -3.4498    1.1545    0.6399 Cl     0
   -3.2255    0.1113   -1.2797 Cl     0
   -3.0735   -0.9207    0.6253 Cl     0
    0.6546    1.8830    0.0008 Mn     0
    1.3358    0.7401   -1.8644 C      0
    1.6749    0.1714   -2.7926 O      0
   -0.6375    2.3269   -1.8360 C      0
   -1.2788    2.5394   -2.7533 O      0
    0.5829    3.1210    1.7893 C      0
    0.8496    3.9416    0.6750 C      0
    2.1104    3.4952    0.1422 C      0
    2.6652    2.1855    0.7149 C      0
    3.9212    1.3970    0.4410 C      0
    1.6898    2.2057    1.8917 C      0
    3.7023    0.5649   -0.2236 H      0
    4.3339    0.9993    1.3661 H      0
    4.6740    2.0265   -0.0292 H      0
  1  2  1
  2  3  1
  2  4  1
  2  5  1
  2  6  1
  1  6  1
  6  7  1
  7  8  3
  6  9  1
  9 10  3
  6 11  1
 11 12  4
  6 12  1
 12 13  4
  6 13  1
 13 14  4
  6 14  1
 14 15  1
 14 16  4
  6 16  1
 11 16  4
 15 17  1
 15 18  1
 15 19  1
M  END
$$$$
