
 OpenBabel09252519183D

 42 41  0  0  0  0  0  0  0  0999 V2000
    1.0116   -0.0607   -0.0786 C   0  0  0  0  0  0  0  0  0  0  0  0
    0.3050   -0.1144    1.9194 Pt  0  0  0  0  0  0  0  0  0  0  0  0
    2.0359    0.9288    2.5597 C   0  0  0  0  0  0  0  0  0  0  0  0
   -0.6944    1.7304    1.6155 C   0  0  0  0  0  0  0  0  0  0  0  0
   -0.3850   -0.1669    3.8703 N   0  0  0  0  0  0  0  0  0  0  0  0
    0.3018    0.3586    4.8016 N   0  3  0  0  0  0  0  0  0  0  0  0
    0.9886    0.8841    5.7329 N   0  5  0  0  0  0  0  0  0  0  0  0
   -1.6791   -1.3101    1.1855 P   0  0  0  0  0  4  0  0  0  0  0  0
   -1.2725   -2.3231   -0.2833 C   0  0  0  0  0  0  0  0  0  0  0  0
   -2.2686   -2.3988    2.5332 C   0  0  0  0  0  0  0  0  0  0  0  0
   -2.9905   -0.1089    0.7540 C   0  0  0  0  0  0  0  0  0  0  0  0
    1.4505   -2.2290    2.2677 P   0  0  0  0  0  4  0  0  0  0  0  0
    0.8056   -3.4732    1.0908 C   0  0  0  0  0  0  0  0  0  0  0  0
    3.2456   -2.0027    1.9933 C   0  0  0  0  0  0  0  0  0  0  0  0
    1.1629   -2.8035    3.9812 C   0  0  0  0  0  0  0  0  0  0  0  0
    0.6550    0.8262   -0.5594 H   0  0  0  0  0  0  0  0  0  0  0  0
    0.6550   -0.9205   -0.6063 H   0  0  0  0  0  0  0  0  0  0  0  0
    2.0816   -0.0607   -0.0786 H   0  0  0  0  0  0  0  0  0  0  0  0
    2.3806    1.5653    1.7717 H   0  0  0  0  0  0  0  0  0  0  0  0
    1.7981    1.5211    3.4185 H   0  0  0  0  0  0  0  0  0  0  0  0
    2.8027    0.2264    2.8120 H   0  0  0  0  0  0  0  0  0  0  0  0
   -1.7440    1.5981    1.7759 H   0  0  0  0  0  0  0  0  0  0  0  0
   -0.3174    2.4579    2.3037 H   0  0  0  0  0  0  0  0  0  0  0  0
   -0.5263    2.0663    0.6136 H   0  0  0  0  0  0  0  0  0  0  0  0
   -0.5057   -3.0255   -0.0310 H   0  0  0  0  0  0  0  0  0  0  0  0
   -2.1461   -2.8496   -0.6064 H   0  0  0  0  0  0  0  0  0  0  0  0
   -0.9278   -1.6865   -1.0713 H   0  0  0  0  0  0  0  0  0  0  0  0
   -2.5064   -1.8065    3.3920 H   0  0  0  0  0  0  0  0  0  0  0  0
   -3.1422   -2.9253    2.2100 H   0  0  0  0  0  0  0  0  0  0  0  0
   -1.5018   -3.1012    2.7855 H   0  0  0  0  0  0  0  0  0  0  0  0
   -3.2283    0.4834    1.6128 H   0  0  0  0  0  0  0  0  0  0  0  0
   -2.6459    0.5277   -0.0340 H   0  0  0  0  0  0  0  0  0  0  0  0
   -3.8642   -0.6354    0.4308 H   0  0  0  0  0  0  0  0  0  0  0  0
    0.9737   -3.1372    0.0889 H   0  0  0  0  0  0  0  0  0  0  0  0
    1.3100   -4.4043    1.2442 H   0  0  0  0  0  0  0  0  0  0  0  0
   -0.2440   -3.6055    1.2512 H   0  0  0  0  0  0  0  0  0  0  0  0
    3.6227   -1.2752    2.6815 H   0  0  0  0  0  0  0  0  0  0  0  0
    3.7500   -2.9338    2.1467 H   0  0  0  0  0  0  0  0  0  0  0  0
    3.4137   -1.6668    0.9915 H   0  0  0  0  0  0  0  0  0  0  0  0
    1.5400   -2.0760    4.6693 H   0  0  0  0  0  0  0  0  0  0  0  0
    0.1133   -2.9358    4.1416 H   0  0  0  0  0  0  0  0  0  0  0  0
    1.6673   -3.7346    4.1346 H   0  0  0  0  0  0  0  0  0  0  0  0
  1  2  1  0  0  0  0
  1 16  1  0  0  0  0
  1 17  1  0  0  0  0
  1 18  1  0  0  0  0
  2  3  1  0  0  0  0
  2  4  1  0  0  0  0
  2  5  1  0  0  0  0
  2  8  1  0  0  0  0
  2 12  1  0  0  0  0
  3 19  1  0  0  0  0
  3 20  1  0  0  0  0
  3 21  1  0  0  0  0
  4 22  1  0  0  0  0
  4 23  1  0  0  0  0
  4 24  1  0  0  0  0
  5  6  2  0  0  0  0
  6  7  2  0  0  0  0
  8  9  1  0  0  0  0
  8 10  1  0  0  0  0
  8 11  1  0  0  0  0
  9 25  1  0  0  0  0
  9 26  1  0  0  0  0
  9 27  1  0  0  0  0
 10 28  1  0  0  0  0
 10 29  1  0  0  0  0
 10 30  1  0  0  0  0
 11 31  1  0  0  0  0
 11 32  1  0  0  0  0
 11 33  1  0  0  0  0
 12 13  1  0  0  0  0
 12 14  1  0  0  0  0
 12 15  1  0  0  0  0
 13 34  1  0  0  0  0
 13 35  1  0  0  0  0
 13 36  1  0  0  0  0
 14 37  1  0  0  0  0
 14 38  1  0  0  0  0
 14 39  1  0  0  0  0
 15 40  1  0  0  0  0
 15 41  1  0  0  0  0
 15 42  1  0  0  0  0
M  CHG  2   6   1   7  -1
M  END
$$$$
