
     RDKit          3D

 46 54  0  0  0  0  0  0  0  0999 V2000
    0.4078    1.9639   -0.9107 Cl  0  0  0  0  0  0  0  0  0  0  0  0
   -0.3812   -0.1533   -0.4196 Ir  0  0  0  0  0  9  0  0  0  0  0  0
    0.1474   -1.1908   -1.9435 C   0  0  0  0  0  0  0  0  0  0  0  0
    1.0988   -0.5438   -1.4927 C   0  0  0  0  0  0  0  0  0  0  0  0
    2.4948   -0.0138   -1.3392 C   0  0  0  0  0  0  0  0  0  0  0  0
    3.6809    0.2767   -1.9745 C   0  0  0  0  0  0  0  0  0  0  0  0
    4.7637    0.3110   -1.1472 C   0  0  0  0  0  0  0  0  0  0  0  0
    4.6949    0.0755    0.1954 C   0  0  0  0  0  0  0  0  0  0  0  0
    3.4882   -0.2005    0.7834 C   0  0  0  0  0  0  0  0  0  0  0  0
    3.6971   -0.6118    2.1167 C   0  0  0  0  0  0  0  0  0  0  0  0
    2.5802   -1.0945    2.7435 C   0  0  0  0  0  0  0  0  0  0  0  0
    1.3916   -1.1253    2.0544 C   0  0  0  0  0  0  0  0  0  0  0  0
    1.0644   -0.7253    0.7156 C   0  0  0  0  0  0  0  0  0  0  0  0
    2.2283   -0.2569    0.0739 C   0  0  0  0  0  0  0  0  0  0  0  0
   -1.6067   -0.5601    0.5466 C   0  0  0  0  0  0  0  0  0  0  0  0
   -2.0592   -1.2833    1.6903 C   0  0  0  0  0  0  0  0  0  0  0  0
   -0.9633    0.6769    0.7887 C   0  0  0  0  0  0  0  0  0  0  0  0
   -0.9943    1.2270    2.0842 C   0  0  0  0  0  0  0  0  0  0  0  0
   -1.3843    1.3790   -0.3490 C   0  0  0  0  0  0  0  0  0  0  0  0
   -2.6940    1.8916   -0.0685 C   0  0  0  0  0  0  0  0  0  0  0  0
   -1.5132    0.4934   -1.3941 C   0  0  0  0  0  0  0  0  0  0  0  0
   -1.9577    0.7755   -2.7036 C   0  0  0  0  0  0  0  0  0  0  0  0
   -2.0130   -0.6256   -0.6942 C   0  0  0  0  0  0  0  0  0  0  0  0
   -3.0354   -1.3255   -1.3035 C   0  0  0  0  0  0  0  0  0  0  0  0
    0.0424   -1.9462   -2.8251 H   0  0  0  0  0  0  0  0  0  0  0  0
    3.4638    0.4181   -3.0113 H   0  0  0  0  0  0  0  0  0  0  0  0
    5.6421    0.5480   -1.7231 H   0  0  0  0  0  0  0  0  0  0  0  0
    5.6347    0.1321    0.6889 H   0  0  0  0  0  0  0  0  0  0  0  0
    4.5868   -0.5926    2.6736 H   0  0  0  0  0  0  0  0  0  0  0  0
    2.4290   -1.4741    3.7284 H   0  0  0  0  0  0  0  0  0  0  0  0
    0.5105   -1.5310    2.5229 H   0  0  0  0  0  0  0  0  0  0  0  0
   -3.1674   -1.3144    1.6754 H   0  0  0  0  0  0  0  0  0  0  0  0
   -1.7676   -2.3714    1.5933 H   0  0  0  0  0  0  0  0  0  0  0  0
   -1.7811   -0.8478    2.6582 H   0  0  0  0  0  0  0  0  0  0  0  0
   -0.3252    0.6966    2.8163 H   0  0  0  0  0  0  0  0  0  0  0  0
   -0.6713    2.2884    2.1409 H   0  0  0  0  0  0  0  0  0  0  0  0
   -2.0133    1.1731    2.5183 H   0  0  0  0  0  0  0  0  0  0  0  0
   -3.0571    2.4762   -0.9383 H   0  0  0  0  0  0  0  0  0  0  0  0
   -3.4717    1.1307    0.1514 H   0  0  0  0  0  0  0  0  0  0  0  0
   -2.6773    2.5736    0.8049 H   0  0  0  0  0  0  0  0  0  0  0  0
   -1.9955   -0.1073   -3.3794 H   0  0  0  0  0  0  0  0  0  0  0  0
   -3.0274    1.0677   -2.5428 H   0  0  0  0  0  0  0  0  0  0  0  0
   -1.3816    1.5941   -3.1876 H   0  0  0  0  0  0  0  0  0  0  0  0
   -3.8667   -1.4675   -0.5623 H   0  0  0  0  0  0  0  0  0  0  0  0
   -3.5139   -0.8804   -2.1993 H   0  0  0  0  0  0  0  0  0  0  0  0
   -2.7283   -2.3549   -1.6557 H   0  0  0  0  0  0  0  0  0  0  0  0
  1  2  1  0
  2  3  1  0
  3  4  2  0
  4  5  1  0
  5  6  2  0
  6  7  1  0
  7  8  2  0
  8  9  1  0
  9 10  2  0
 10 11  1  0
 11 12  2  0
 12 13  1  0
 13 14  2  0
  2 15  1  0
 15 16  1  0
 15 17  1  0
 17 18  1  0
 17 19  1  0
 19 20  1  0
 19 21  1  0
 21 22  1  0
 21 23  1  0
 23 24  1  0
  4  2  1  0
 14  5  1  0
 23 15  1  0
 13  2  1  0
 17  2  1  0
 19  2  1  0
 21  2  1  0
 23  2  1  0
 14  9  1  0
  3 25  1  0
  6 26  1  0
  7 27  1  0
  8 28  1  0
 10 29  1  0
 11 30  1  0
 12 31  1  0
 16 32  1  0
 16 33  1  0
 16 34  1  0
 18 35  1  0
 18 36  1  0
 18 37  1  0
 20 38  1  0
 20 39  1  0
 20 40  1  0
 22 41  1  0
 22 42  1  0
 22 43  1  0
 24 44  1  0
 24 45  1  0
 24 46  1  0
M  END
