
 OpenBabel09252518563D

 26 26  0  0  0  0  0  0  0  0999 V2000
    3.1477    0.0543    0.6911 H   0  0  0  0  0  0  0  0  0  0  0  0
    2.8791   -0.2425   -0.3169 C   0  0  0  0  0  3  0  0  0  0  0  0
    2.1820   -1.5084   -0.5209 C   0  0  0  0  0  3  0  0  0  0  0  0
    1.9984   -2.1521    0.3326 H   0  0  0  0  0  0  0  0  0  0  0  0
    1.9163   -1.9826   -1.8821 C   0  0  0  0  0  3  0  0  0  0  0  0
    1.6197   -3.3953   -2.1202 N   0  0  0  0  0  0  0  0  0  0  0  0
    1.5906   -4.1488   -1.1374 O   0  0  0  0  0  0  0  0  0  0  0  0
    1.4260   -3.7519   -3.2903 O   0  0  0  0  0  0  0  0  0  0  0  0
    2.1636   -1.0861   -3.0143 C   0  0  0  0  0  3  0  0  0  0  0  0
    1.9795   -1.4176   -4.0306 H   0  0  0  0  0  0  0  0  0  0  0  0
    2.8833    0.1649   -2.8020 C   0  0  0  0  0  3  0  0  0  0  0  0
    3.2248    0.7325   -3.6624 H   0  0  0  0  0  0  0  0  0  0  0  0
    3.4179    0.4902   -1.4721 C   0  0  0  0  0  3  0  0  0  0  0  0
    4.7123    1.2227   -1.3830 C   0  0  0  0  0  0  0  0  0  0  0  0
    5.4542    1.3863   -2.3419 O   0  0  0  0  0  0  0  0  0  0  0  0
    4.9689    1.5818   -0.1020 O   0  0  0  0  0  0  0  0  0  0  0  0
    6.3323    1.9364    0.1971 C   0  0  0  0  0  0  0  0  0  0  0  0
    7.0014    1.1776   -0.2279 H   0  0  0  0  0  0  0  0  0  0  0  0
    6.6941    3.3199   -0.3313 C   0  0  0  0  0  0  0  0  0  0  0  0
    5.9889    4.0760    0.0281 H   0  0  0  0  0  0  0  0  0  0  0  0
    7.7056    3.6022   -0.0220 H   0  0  0  0  0  0  0  0  0  0  0  0
    6.6612    3.3522   -1.4242 H   0  0  0  0  0  0  0  0  0  0  0  0
    6.4639    1.8986    1.7163 C   0  0  0  0  0  0  0  0  0  0  0  0
    5.8177    2.6506    2.1833 H   0  0  0  0  0  0  0  0  0  0  0  0
    6.1442    0.9257    2.1058 H   0  0  0  0  0  0  0  0  0  0  0  0
    7.4958    2.0799    2.0312 H   0  0  0  0  0  0  0  0  0  0  0  0
  1  2  1  0  0  0  0
  2  3  1  0  0  0  0
  2 13  1  0  0  0  0
  3  4  1  0  0  0  0
  3  5  1  0  0  0  0
  5  6  1  0  0  0  0
  5  9  1  0  0  0  0
  6  7  2  0  0  0  0
  6  8  2  0  0  0  0
  9 10  1  0  0  0  0
  9 11  1  0  0  0  0
 11 12  1  0  0  0  0
 11 13  1  0  0  0  0
 13 14  1  0  0  0  0
 14 15  2  0  0  0  0
 14 16  1  0  0  0  0
 16 17  1  0  0  0  0
 17 18  1  0  0  0  0
 17 19  1  0  0  0  0
 17 23  1  0  0  0  0
 19 20  1  0  0  0  0
 19 21  1  0  0  0  0
 19 22  1  0  0  0  0
 23 24  1  0  0  0  0
 23 25  1  0  0  0  0
 23 26  1  0  0  0  0
M  END
$$$$
