
 OpenBabel09252518193D

 32 35  0  0  0  0  0  0  0  0999 V2000
    0.9352   -0.0187    0.0401 O   0  0  0  0  0  0  0  0  0  0  0  0
    2.1587    0.0214    0.1020 C   0  0  0  0  0  0  0  0  0  0  0  0
    2.8019    1.1834    0.3920 N   0  0  0  0  0  0  0  0  0  0  0  0
    4.1777    1.3382    0.2566 C   0  0  0  0  0  0  0  0  0  0  0  0
    4.7118    2.6234    0.4048 C   0  0  0  0  0  0  0  0  0  0  0  0
    6.0509    2.8500    0.1136 C   0  0  0  0  0  0  0  0  0  0  0  0
    6.8242    1.8068   -0.3817 C   0  0  0  0  0  0  0  0  0  0  0  0
    6.2757    0.5238   -0.5218 C   0  0  0  0  0  0  0  0  0  0  0  0
    4.9636    0.2367   -0.1188 C   0  0  0  0  0  0  0  0  0  0  0  0
    4.3623   -1.1449   -0.0934 C   0  0  0  0  0  0  0  0  0  0  0  0
    3.0082   -1.2036   -0.0564 C   0  0  0  0  0  0  0  0  0  0  0  0
    2.1733   -2.4514   -0.0901 C   0  0  0  0  0  0  0  0  0  0  0  0
    2.9103   -3.7664   -0.2687 C   0  0  0  0  0  0  0  0  0  0  0  0
    4.4043   -3.6894   -0.1611 C   0  0  0  0  0  0  0  0  0  0  0  0
    5.1004   -4.9177   -0.1610 C   0  0  0  0  0  0  0  0  0  0  0  0
    6.4781   -4.9585   -0.0020 C   0  0  0  0  0  0  0  0  0  0  0  0
    7.1643   -3.7741    0.2038 C   0  0  0  0  0  0  0  0  0  0  0  0
    6.4733   -2.5550    0.2178 C   0  0  0  0  0  0  0  0  0  0  0  0
    5.0910   -2.4656   -0.0315 C   0  0  0  0  0  0  0  0  0  0  0  0
    2.2062    1.9863    0.5384 H   0  0  0  0  0  0  0  0  0  0  0  0
    4.0875    3.4528    0.7251 H   0  0  0  0  0  0  0  0  0  0  0  0
    6.4766    3.8429    0.2308 H   0  0  0  0  0  0  0  0  0  0  0  0
    7.8580    1.9876   -0.6670 H   0  0  0  0  0  0  0  0  0  0  0  0
    6.9033   -0.2348   -0.9786 H   0  0  0  0  0  0  0  0  0  0  0  0
    1.5864   -2.5049    0.8370 H   0  0  0  0  0  0  0  0  0  0  0  0
    1.4397   -2.3733   -0.9043 H   0  0  0  0  0  0  0  0  0  0  0  0
    2.5435   -4.4622    0.4995 H   0  0  0  0  0  0  0  0  0  0  0  0
    2.6474   -4.2060   -1.2386 H   0  0  0  0  0  0  0  0  0  0  0  0
    4.5541   -5.8528   -0.2729 H   0  0  0  0  0  0  0  0  0  0  0  0
    7.0043   -5.9087   -0.0070 H   0  0  0  0  0  0  0  0  0  0  0  0
    8.2387   -3.7899    0.3685 H   0  0  0  0  0  0  0  0  0  0  0  0
    7.0632   -1.6806    0.4655 H   0  0  0  0  0  0  0  0  0  0  0  0
  1  2  2  0  0  0  0
  2  3  1  0  0  0  0
  2 11  1  0  0  0  0
  3  4  1  0  0  0  0
  3 20  1  0  0  0  0
  4  5  1  0  0  0  0
  4  9  2  0  0  0  0
  5  6  2  0  0  0  0
  5 21  1  0  0  0  0
  6  7  1  0  0  0  0
  6 22  1  0  0  0  0
  7  8  2  0  0  0  0
  7 23  1  0  0  0  0
  8  9  1  0  0  0  0
  8 24  1  0  0  0  0
  9 10  1  0  0  0  0
 10 11  2  0  0  0  0
 10 19  1  0  0  0  0
 11 12  1  0  0  0  0
 12 13  1  0  0  0  0
 12 25  1  0  0  0  0
 12 26  1  0  0  0  0
 13 14  1  0  0  0  0
 13 27  1  0  0  0  0
 13 28  1  0  0  0  0
 14 15  1  0  0  0  0
 14 19  2  0  0  0  0
 15 16  2  0  0  0  0
 15 29  1  0  0  0  0
 16 17  1  0  0  0  0
 16 30  1  0  0  0  0
 17 18  2  0  0  0  0
 17 31  1  0  0  0  0
 18 19  1  0  0  0  0
 18 32  1  0  0  0  0
M  END
$$$$
