
  --CCDC--092525    3D                              

 68 74  0  0  0  0  0  0  0  0999 V2000
    0.5767    5.0594   -1.5722 H      0
    0.6872    4.0257   -1.8930 C      0
   -0.1324    3.4503   -1.4683 H      0
    0.5960    3.9960   -2.9768 H      0
    2.2527    3.3718   -1.3761 S      0
    2.6020    2.4178   -2.3896 O      0
    2.2491   -0.0321   -1.4703 U      3
    0.7101    0.0666   -3.6143 O      0
    0.1294    1.3712   -3.7512 S      0
   -1.3732    1.0877   -4.6495 C      0
   -1.1757    0.5398   -5.5684 H      0
   -1.8489    2.0302   -4.9125 H      0
   -2.0753    0.5083   -4.0536 H      0
    1.0706    2.1344   -5.0464 C      0
    1.3519    3.1490   -4.7719 H      0
    0.4920    2.1808   -5.9666 H      0
    1.9805    1.5732   -5.2474 H      0
   -0.1217    1.0187   -0.9814 O      0
   -1.1628    0.0620   -1.0468 C      0
   -2.3354    0.3695   -0.9199 O      0
   -0.7893   -1.4050   -1.2700 C      0
   -0.7168   -1.5821   -2.3469 H      0
   -1.5907   -2.0569   -0.9009 H      0
    0.4229   -1.7032   -0.5988 N      0
    0.8709   -3.0191   -0.9910 C      0
    1.6542   -3.3791   -0.3177 H      0
    0.0361   -3.7207   -0.8716 H      0
    1.3735   -3.0827   -2.4276 C      0
    1.5267   -4.1320   -2.7086 H      0
    0.6182   -2.7045   -3.1231 H      0
    2.6177   -2.3800   -2.5932 N      0
    2.7524   -2.1604   -3.9912 C      0
    1.7946   -1.8657   -4.4336 H      0
    3.0258   -3.1041   -4.4791 H      0
    3.8024   -1.0925   -4.3226 C      0
    4.4942   -1.2386   -5.3153 O      0
    3.9237    0.0513   -3.5017 O      0
    3.8504   -3.0154   -2.1771 C      0
    3.7204   -4.1036   -2.2262 H      0
    4.6779   -2.7984   -2.8607 H      0
    4.2853   -2.6241   -0.7782 C      0
    3.5296   -2.9376   -0.0523 H      0
    5.2194   -3.1323   -0.5089 H      0
    4.4744   -1.2089   -0.8129 N      0
    5.0865   -0.9295   -1.5968 H      0
    4.8450   -0.5913    0.4002 C      0
    5.7795   -1.0208    0.7817 H      0
    5.0277    0.4794    0.2650 H      0
    3.7030   -0.8693    1.3586 C      0
    3.7325   -1.9363    1.6027 H      0
    3.9830   -0.3983    2.3090 H      0
    2.3397   -0.5007    1.1275 N      0
    1.9476    0.6457    1.8988 C      0
    2.0535    0.4465    2.9724 H      0
    0.9047    0.9287    1.7204 H      0
    2.8732    1.7739    1.4645 C      0
    3.2694    2.5787    2.2896 O      0
    3.1957    1.8790    0.0927 O      0
    1.4663   -1.5523    1.5879 C      0
    1.9015   -2.5454    1.4306 H      0
    1.2830   -1.4540    2.6651 H      0
    0.1782   -1.4297    0.8029 C      0
   -0.2505   -0.4445    1.0028 H      0
   -0.5513   -2.1545    1.1851 H      0
    3.2611    4.7838   -1.7425 C      0
    3.0021    5.6207   -1.0973 H      0
    3.1249    5.0974   -2.7754 H      0
    4.3143    4.5546   -1.5939 H      0
  1  2  1
  2  3  1
  2  4  1
  2  5  1
  5  6  2
  6  7  1
  7  8  1
  8  9  2
  9 10  1
 10 11  1
 10 12  1
 10 13  1
  9 14  1
 14 15  1
 14 16  1
 14 17  1
  7 18  1
 18 19  1
 19 20  2
 19 21  1
 21 22  1
 21 23  1
 21 24  1
  7 24  1
 24 25  1
 25 26  1
 25 27  1
 25 28  1
 28 29  1
 28 30  1
 28 31  1
  7 31  1
 31 32  1
 32 33  1
 32 34  1
 32 35  1
 35 36  2
 35 37  1
  7 37  1
 31 38  1
 38 39  1
 38 40  1
 38 41  1
 41 42  1
 41 43  1
 41 44  1
  7 44  1
 44 45  1
 44 46  1
 46 47  1
 46 48  1
 46 49  1
 49 50  1
 49 51  1
 49 52  1
  7 52  1
 52 53  1
 53 54  1
 53 55  1
 53 56  1
 56 57  2
 56 58  1
  7 58  1
 52 59  1
 59 60  1
 59 61  1
 59 62  1
 24 62  1
 62 63  1
 62 64  1
  5 65  1
 65 66  1
 65 67  1
 65 68  1
M  CHG  1   7   1
M  END
$$$$
