
 OpenBabel09252514253D

 53 52  0  0  0  0  0  0  0  0999 V2000
    1.0693    0.0179    0.0698 C   0  0  0  0  0  0  0  0  0  0  0  0
    0.3427   -0.2543   -1.9674 Rh  0  0  0  0  0  0  0  0  0  0  0  0
    2.6370   -1.7543   -2.5854 I   0  0  0  0  0  0  0  0  0  0  0  0
   -0.9820   -2.6044   -1.1810 I   0  0  0  0  0  0  0  0  0  0  0  0
   -0.3840   -0.5264   -4.0046 C   0  0  0  0  0  0  0  0  0  0  0  0
   -0.7900   -0.6785   -5.1429 O   0  0  0  0  0  0  0  0  0  0  0  0
   -1.6904    1.0749   -1.4198 P   0  0  0  0  0  4  0  0  0  0  0  0
   -1.2837    2.3086   -0.1308 C   0  0  0  0  0  0  0  0  0  0  0  0
   -0.1945    3.2366   -0.6433 C   0  0  0  0  0  0  0  0  0  0  0  0
   -2.2799    1.9355   -2.9234 C   0  0  0  0  0  0  0  0  0  0  0  0
   -2.6176    0.9108   -3.9941 C   0  0  0  0  0  0  0  0  0  0  0  0
   -3.0018   -0.0424   -0.8028 C   0  0  0  0  0  0  0  0  0  0  0  0
   -3.3396   -1.0671   -1.8734 C   0  0  0  0  0  0  0  0  0  0  0  0
    1.5165    1.8282   -2.6643 P   0  0  0  0  0  4  0  0  0  0  0  0
    0.8716    3.2437   -1.7003 C   0  0  0  0  0  0  0  0  0  0  0  0
    1.1104    2.9989   -0.2193 C   0  0  0  0  0  0  0  0  0  0  0  0
    3.3116    1.6484   -2.3575 C   0  0  0  0  0  0  0  0  0  0  0  0
    3.8472    0.4727   -3.1582 C   0  0  0  0  0  0  0  0  0  0  0  0
    1.2289    2.1229   -4.4474 C   0  0  0  0  0  0  0  0  0  0  0  0
    1.7645    0.9472   -5.2481 C   0  0  0  0  0  0  0  0  0  0  0  0
    0.7127   -0.7813    0.6854 H   0  0  0  0  0  0  0  0  0  0  0  0
    0.7127    0.9506    0.4541 H   0  0  0  0  0  0  0  0  0  0  0  0
    2.1393    0.0179    0.0698 H   0  0  0  0  0  0  0  0  0  0  0  0
   -2.1574    2.8798    0.1045 H   0  0  0  0  0  0  0  0  0  0  0  0
   -0.9391    1.8054    0.7484 H   0  0  0  0  0  0  0  0  0  0  0  0
   -0.5392    3.7398   -1.5225 H   0  0  0  0  0  0  0  0  0  0  0  0
    0.0433    3.9580    0.1104 H   0  0  0  0  0  0  0  0  0  0  0  0
    0.6792    2.6655   -0.8786 H   0  0  0  0  0  0  0  0  0  0  0  0
   -3.1535    2.5067   -2.6881 H   0  0  0  0  0  0  0  0  0  0  0  0
   -1.5131    2.5888   -3.2842 H   0  0  0  0  0  0  0  0  0  0  0  0
   -3.3844    0.2575   -3.6333 H   0  0  0  0  0  0  0  0  0  0  0  0
   -2.9623    1.4140   -4.8733 H   0  0  0  0  0  0  0  0  0  0  0  0
   -1.7440    0.3396   -4.2294 H   0  0  0  0  0  0  0  0  0  0  0  0
   -2.6571   -0.5456    0.0764 H   0  0  0  0  0  0  0  0  0  0  0  0
   -3.8754    0.5288   -0.5675 H   0  0  0  0  0  0  0  0  0  0  0  0
   -2.4659   -1.6383   -2.1088 H   0  0  0  0  0  0  0  0  0  0  0  0
   -4.1063   -1.7204   -1.5127 H   0  0  0  0  0  0  0  0  0  0  0  0
   -3.6842   -0.5639   -2.7526 H   0  0  0  0  0  0  0  0  0  0  0  0
    1.3760    4.1385   -1.9997 H   0  0  0  0  0  0  0  0  0  0  0  0
   -0.1780    3.3488   -1.8797 H   0  0  0  0  0  0  0  0  0  0  0  0
    2.1600    2.8937   -0.0398 H   0  0  0  0  0  0  0  0  0  0  0  0
    0.7334    3.8265    0.3444 H   0  0  0  0  0  0  0  0  0  0  0  0
    0.6060    2.1040    0.0802 H   0  0  0  0  0  0  0  0  0  0  0  0
    3.8160    2.5433   -2.6570 H   0  0  0  0  0  0  0  0  0  0  0  0
    3.4797    1.4761   -1.3149 H   0  0  0  0  0  0  0  0  0  0  0  0
    3.6791    0.6450   -4.2008 H   0  0  0  0  0  0  0  0  0  0  0  0
    4.8968    0.3676   -2.9788 H   0  0  0  0  0  0  0  0  0  0  0  0
    3.3428   -0.4222   -2.8588 H   0  0  0  0  0  0  0  0  0  0  0  0
    0.1793    2.2280   -4.6268 H   0  0  0  0  0  0  0  0  0  0  0  0
    1.7333    3.0178   -4.7469 H   0  0  0  0  0  0  0  0  0  0  0  0
    1.2601    0.0523   -4.9487 H   0  0  0  0  0  0  0  0  0  0  0  0
    1.5964    1.1196   -6.2907 H   0  0  0  0  0  0  0  0  0  0  0  0
    2.8141    0.8421   -5.0687 H   0  0  0  0  0  0  0  0  0  0  0  0
  1  2  1  0  0  0  0
  1 21  1  0  0  0  0
  1 22  1  0  0  0  0
  1 23  1  0  0  0  0
  2  3  1  0  0  0  0
  2  4  1  0  0  0  0
  2  5  1  0  0  0  0
  2  7  1  0  0  0  0
  2 14  1  0  0  0  0
  5  6  3  0  0  0  0
  7  8  1  0  0  0  0
  7 10  1  0  0  0  0
  7 12  1  0  0  0  0
  8  9  1  0  0  0  0
  8 24  1  0  0  0  0
  8 25  1  0  0  0  0
  9 26  1  0  0  0  0
  9 27  1  0  0  0  0
  9 28  1  0  0  0  0
 10 11  1  0  0  0  0
 10 29  1  0  0  0  0
 10 30  1  0  0  0  0
 11 31  1  0  0  0  0
 11 32  1  0  0  0  0
 11 33  1  0  0  0  0
 12 13  1  0  0  0  0
 12 34  1  0  0  0  0
 12 35  1  0  0  0  0
 13 36  1  0  0  0  0
 13 37  1  0  0  0  0
 13 38  1  0  0  0  0
 14 15  1  0  0  0  0
 14 17  1  0  0  0  0
 14 19  1  0  0  0  0
 15 16  1  0  0  0  0
 15 39  1  0  0  0  0
 15 40  1  0  0  0  0
 16 41  1  0  0  0  0
 16 42  1  0  0  0  0
 16 43  1  0  0  0  0
 17 18  1  0  0  0  0
 17 44  1  0  0  0  0
 17 45  1  0  0  0  0
 18 46  1  0  0  0  0
 18 47  1  0  0  0  0
 18 48  1  0  0  0  0
 19 20  1  0  0  0  0
 19 49  1  0  0  0  0
 19 50  1  0  0  0  0
 20 51  1  0  0  0  0
 20 52  1  0  0  0  0
 20 53  1  0  0  0  0
M  END
$$$$
