
     RDKit          3D

 57 60  0  0  0  0  0  0  0  0999 V2000
    4.0951    0.8889    3.1347 C   0  0  0  0  0  0  0  0  0  0  0  0
    3.4550    0.5882    1.9021 O   0  0  0  0  0  0  0  0  0  0  0  0
    3.9693   -0.4465    1.1621 C   0  0  0  0  0  0  0  0  0  0  0  0
    5.1877   -1.0818    1.4281 C   0  0  0  0  0  0  0  0  0  0  0  0
    5.6346   -2.1281    0.6138 C   0  0  0  0  0  0  0  0  0  0  0  0
    4.8719   -2.5477   -0.4736 C   0  0  0  0  0  0  0  0  0  0  0  0
    3.6604   -1.9184   -0.7524 C   0  0  0  0  0  0  0  0  0  0  0  0
    3.2079   -0.8696    0.0579 C   0  0  0  0  0  0  0  0  0  0  0  0
    1.9527   -0.2566   -0.2610 C   0  0  0  0  0  0  0  0  0  0  0  0
    0.8903    0.2415   -0.5224 C   0  0  0  0  0  0  0  0  0  0  0  0
   -0.3904    0.8169   -0.8283 C   0  0  0  0  0  0  0  0  0  0  0  0
   -1.5054    0.0523   -0.9104 C   0  0  0  0  0  0  0  0  0  0  0  0
   -1.2784   -1.3896   -0.7439 N   0  0  0  0  0  0  0  0  0  0  0  0
   -1.1861   -1.8439    0.6333 C   0  0  0  0  0  0  0  0  0  0  0  0
   -2.0316   -1.3937    1.6557 C   0  0  0  0  0  0  0  0  0  0  0  0
   -1.9263   -1.9302    2.9415 C   0  0  0  0  0  0  0  0  0  0  0  0
   -0.9924   -2.9304    3.2081 C   0  0  0  0  0  0  0  0  0  0  0  0
   -0.1696   -3.4048    2.1886 C   0  0  0  0  0  0  0  0  0  0  0  0
   -0.2758   -2.8718    0.9029 C   0  0  0  0  0  0  0  0  0  0  0  0
   -2.5120   -2.1868   -1.6627 S   0  0  0  0  0  0  0  0  0  0  0  0
   -3.1662   -3.2317   -0.9055 O   0  0  0  0  0  0  0  0  0  0  0  0
   -2.0541   -2.3752   -3.0236 O   0  0  0  0  0  0  0  0  0  0  0  0
   -3.5784   -0.8034   -1.6914 C   0  0  0  0  0  0  0  0  0  0  0  0
   -4.9266   -0.8586   -2.0182 C   0  0  0  0  0  0  0  0  0  0  0  0
   -5.6579    0.3187   -1.9183 C   0  0  0  0  0  0  0  0  0  0  0  0
   -5.0343    1.4911   -1.4734 C   0  0  0  0  0  0  0  0  0  0  0  0
   -3.6721    1.5008   -1.1301 C   0  0  0  0  0  0  0  0  0  0  0  0
   -2.9138    0.3451   -1.2628 C   0  0  0  0  0  0  0  0  0  0  0  0
   -0.1891    2.6683   -1.1388 Si  0  0  0  0  0  4  0  0  0  0  0  0
   -1.0150    3.2032   -2.7388 C   0  0  0  0  0  0  0  0  0  0  0  0
    1.6468    3.1379   -1.3352 C   0  0  0  0  0  0  0  0  0  0  0  0
   -0.8288    3.6466    0.3330 C   0  0  0  0  0  0  0  0  0  0  0  0
    5.0962    1.3004    2.9669 H   0  0  0  0  0  0  0  0  0  0  0  0
    3.5015    1.6566    3.6406 H   0  0  0  0  0  0  0  0  0  0  0  0
    4.1311    0.0123    3.7896 H   0  0  0  0  0  0  0  0  0  0  0  0
    5.8191   -0.7822    2.2586 H   0  0  0  0  0  0  0  0  0  0  0  0
    6.5825   -2.6148    0.8296 H   0  0  0  0  0  0  0  0  0  0  0  0
    5.2196   -3.3613   -1.1057 H   0  0  0  0  0  0  0  0  0  0  0  0
    3.0670   -2.2479   -1.6030 H   0  0  0  0  0  0  0  0  0  0  0  0
   -2.7810   -0.6311    1.4742 H   0  0  0  0  0  0  0  0  0  0  0  0
   -2.5802   -1.5734    3.7324 H   0  0  0  0  0  0  0  0  0  0  0  0
   -0.9136   -3.3483    4.2082 H   0  0  0  0  0  0  0  0  0  0  0  0
    0.5515   -4.1923    2.3897 H   0  0  0  0  0  0  0  0  0  0  0  0
    0.3653   -3.2505    0.1105 H   0  0  0  0  0  0  0  0  0  0  0  0
   -5.3906   -1.7891   -2.3310 H   0  0  0  0  0  0  0  0  0  0  0  0
   -6.7166    0.3268   -2.1682 H   0  0  0  0  0  0  0  0  0  0  0  0
   -5.6185    2.4051   -1.3783 H   0  0  0  0  0  0  0  0  0  0  0  0
   -3.2543    2.4224   -0.7469 H   0  0  0  0  0  0  0  0  0  0  0  0
   -2.0949    3.0445   -2.7360 H   0  0  0  0  0  0  0  0  0  0  0  0
   -0.5944    2.6483   -3.5849 H   0  0  0  0  0  0  0  0  0  0  0  0
   -0.8367    4.2698   -2.9140 H   0  0  0  0  0  0  0  0  0  0  0  0
    2.1016    2.5745   -2.1550 H   0  0  0  0  0  0  0  0  0  0  0  0
    2.1984    2.9351   -0.4128 H   0  0  0  0  0  0  0  0  0  0  0  0
    1.7335    4.2054   -1.5587 H   0  0  0  0  0  0  0  0  0  0  0  0
   -0.8657    4.7134    0.0934 H   0  0  0  0  0  0  0  0  0  0  0  0
   -1.8272    3.3300    0.6403 H   0  0  0  0  0  0  0  0  0  0  0  0
   -0.1613    3.5156    1.1898 H   0  0  0  0  0  0  0  0  0  0  0  0
  1  2  1  0
  2  3  1  0
  3  4  2  0
  4  5  1  0
  5  6  2  0
  6  7  1  0
  7  8  2  0
  8  9  1  0
  9 10  3  0
 10 11  1  0
 11 12  2  3
 12 13  1  0
 13 14  1  0
 14 15  2  0
 15 16  1  0
 16 17  2  0
 17 18  1  0
 18 19  2  0
 13 20  1  0
 20 21  2  0
 20 22  2  0
 20 23  1  0
 23 24  2  0
 24 25  1  0
 25 26  2  0
 26 27  1  0
 27 28  2  0
 11 29  1  0
 29 30  1  0
 29 31  1  0
 29 32  1  0
  8  3  1  0
 28 12  1  0
 19 14  1  0
 28 23  1  0
  1 33  1  0
  1 34  1  0
  1 35  1  0
  4 36  1  0
  5 37  1  0
  6 38  1  0
  7 39  1  0
 15 40  1  0
 16 41  1  0
 17 42  1  0
 18 43  1  0
 19 44  1  0
 24 45  1  0
 25 46  1  0
 26 47  1  0
 27 48  1  0
 30 49  1  0
 30 50  1  0
 30 51  1  0
 31 52  1  0
 31 53  1  0
 31 54  1  0
 32 55  1  0
 32 56  1  0
 32 57  1  0
M  END
