
 OpenBabel09252513433D

 73 85  0  0  0  0  0  0  0  0999 V2000
    0.9326    0.0414   -0.0612 Cl  0  0  0  0  0  0  0  0  0  0  0  0
    3.7026    0.0414   -0.0612 Zr  0  0  0  0  0  0  0  0  0  0  0  0
    5.1345    1.0052   -2.2276 Cl  0  0  0  0  0  0  0  0  0  0  0  0
    1.8201    1.6095    0.4318 C   0  0  0  0  0  0  0  0  0  0  0  0
    1.6340   -1.7602   -1.2876 C   0  0  0  0  0  0  0  0  0  0  0  0
    1.4516   -0.9623   -0.2010 C   0  0  0  0  0  0  0  0  0  0  0  0
    0.9067   -1.7122    0.7905 C   0  0  0  0  0  0  0  0  0  0  0  0
    1.0196   -1.3277    2.1059 C   0  0  0  0  0  0  0  0  0  0  0  0
    1.3544   -0.0292    2.4175 C   0  0  0  0  0  0  0  0  0  0  0  0
    1.9125    0.7870    1.4848 C   0  0  0  0  0  0  0  0  0  0  0  0
    2.2007    0.3072    0.0885 C   0  0  0  0  0  0  0  0  0  0  0  0
    1.7826    1.3907   -0.9104 C   0  0  0  0  0  0  0  0  0  0  0  0
    2.0733    0.9125   -2.3332 Si  0  0  0  0  0  0  0  0  0  0  0  0
    1.5541    2.2316   -3.5528 C   0  0  0  0  0  0  0  0  0  0  0  0
    1.1171   -0.6588   -2.6704 C   0  0  0  0  0  0  0  0  0  0  0  0
    3.5720    0.6400   -2.4833 Si  0  0  0  0  0  0  0  0  0  0  0  0
    3.9291    0.0532   -4.2226 C   0  0  0  0  0  0  0  0  0  0  0  0
    4.5285    2.2116   -2.1486 C   0  0  0  0  0  0  0  0  0  0  0  0
    3.9952   -0.4378   -1.4834 C   0  0  0  0  0  0  0  0  0  0  0  0
    4.9959   -3.0078    1.6339 C   0  0  0  0  0  3  0  0  0  0  0  0
    4.6459   -2.0766    0.4846 C   0  0  0  0  0  0  0  0  0  0  0  0
    4.8607   -2.4707   -0.7997 C   0  0  0  0  0  0  0  0  0  0  0  0
    5.3782   -3.6749   -1.0381 C   0  0  0  0  0  0  0  0  0  0  0  0
    5.5980   -4.0848   -2.2800 C   0  0  0  0  0  0  0  0  0  0  0  0
    5.2798   -3.2353   -3.3605 C   0  0  0  0  0  0  0  0  0  0  0  0
    4.7493   -2.0174   -3.1025 C   0  0  0  0  0  0  0  0  0  0  0  0
    4.5469   -1.6378   -1.8094 C   0  0  0  0  0  0  0  0  0  0  0  0
    3.9202   -0.3894    0.8359 Si  0  0  0  0  0  0  0  0  0  0  0  0
    5.0471    0.9310    0.1407 C   0  0  0  0  0  0  0  0  0  0  0  0
    2.2357   -0.2563    0.0349 C   0  0  0  0  0  0  0  0  0  0  0  0
    3.7519   -0.1557    2.6836 C   0  0  0  0  0  0  0  0  0  0  0  0
    2.3724   -1.0530   -2.8534 Si  0  0  0  0  0  0  0  0  0  0  0  0
    1.2846    0.3302   -3.4861 C   0  0  0  0  0  0  0  0  0  0  0  0
    4.0813   -0.3859   -2.4907 C   0  0  0  0  0  0  0  0  0  0  0  0
    2.4896   -2.3962   -4.1492 C   0  0  0  0  0  0  0  0  0  0  0  0
    0.3833   -2.6129    0.5458 H   0  0  0  0  0  0  0  0  0  0  0  0
    0.8471   -2.0378    2.8875 H   0  0  0  0  0  0  0  0  0  0  0  0
    1.1732    0.3416    3.4047 H   0  0  0  0  0  0  0  0  0  0  0  0
    2.1528    1.7953    1.7503 H   0  0  0  0  0  0  0  0  0  0  0  0
    1.7577    1.8968   -4.5485 H   0  0  0  0  0  0  0  0  0  0  0  0
    0.5064    2.4220   -3.4477 H   0  0  0  0  0  0  0  0  0  0  0  0
    2.1011    3.1307   -3.3600 H   0  0  0  0  0  0  0  0  0  0  0  0
    1.4142   -1.4138   -1.9727 H   0  0  0  0  0  0  0  0  0  0  0  0
    0.0695   -0.4684   -2.5652 H   0  0  0  0  0  0  0  0  0  0  0  0
    1.3206   -0.9935   -3.6661 H   0  0  0  0  0  0  0  0  0  0  0  0
    3.6326    0.8073   -4.9213 H   0  0  0  0  0  0  0  0  0  0  0  0
    4.9769   -0.1374   -4.3266 H   0  0  0  0  0  0  0  0  0  0  0  0
    3.3822   -0.8461   -4.4149 H   0  0  0  0  0  0  0  0  0  0  0  0
    4.3242    2.5484   -1.1537 H   0  0  0  0  0  0  0  0  0  0  0  0
    5.5761    2.0206   -2.2524 H   0  0  0  0  0  0  0  0  0  0  0  0
    4.2323    2.9652   -2.8480 H   0  0  0  0  0  0  0  0  0  0  0  0
    5.6192   -4.3188   -0.2182 H   0  0  0  0  0  0  0  0  0  0  0  0
    6.0142   -5.0537   -2.4614 H   0  0  0  0  0  0  0  0  0  0  0  0
    5.4553   -3.5491   -4.3683 H   0  0  0  0  0  0  0  0  0  0  0  0
    4.4913   -1.3591   -3.9056 H   0  0  0  0  0  0  0  0  0  0  0  0
    5.1434    0.7973   -0.9166 H   0  0  0  0  0  0  0  0  0  0  0  0
    4.6318    1.8964    0.3417 H   0  0  0  0  0  0  0  0  0  0  0  0
    6.0110    0.8548    0.5990 H   0  0  0  0  0  0  0  0  0  0  0  0
    1.5908   -1.0118    0.4327 H   0  0  0  0  0  0  0  0  0  0  0  0
    1.8204    0.7091    0.2359 H   0  0  0  0  0  0  0  0  0  0  0  0
    2.3319   -0.3900   -1.0224 H   0  0  0  0  0  0  0  0  0  0  0  0
    3.1071   -0.9112    3.0815 H   0  0  0  0  0  0  0  0  0  0  0  0
    4.7158   -0.2319    3.1420 H   0  0  0  0  0  0  0  0  0  0  0  0
    3.3367    0.8097    2.8847 H   0  0  0  0  0  0  0  0  0  0  0  0
    1.2175    1.0988   -2.7446 H   0  0  0  0  0  0  0  0  0  0  0  0
    1.7071    0.7349   -4.3820 H   0  0  0  0  0  0  0  0  0  0  0  0
    0.3068   -0.0515   -3.6936 H   0  0  0  0  0  0  0  0  0  0  0  0
    4.7037   -1.1773   -2.1287 H   0  0  0  0  0  0  0  0  0  0  0  0
    4.5037    0.0188   -3.3866 H   0  0  0  0  0  0  0  0  0  0  0  0
    4.0142    0.3827   -1.7493 H   0  0  0  0  0  0  0  0  0  0  0  0
    3.1121   -3.1876   -3.7872 H   0  0  0  0  0  0  0  0  0  0  0  0
    1.5118   -2.7779   -4.3567 H   0  0  0  0  0  0  0  0  0  0  0  0
    2.9121   -1.9915   -5.0451 H   0  0  0  0  0  0  0  0  0  0  0  0
  1  2  1  0  0  0  0
  2  3  1  0  0  0  0
  2  4  1  0  0  0  0
  2  5  1  0  0  0  0
  2  6  1  0  0  0  0
  2 11  1  0  0  0  0
  2 12  1  0  0  0  0
  2 19  1  0  0  0  0
  2 20  1  0  0  0  0
  2 21  1  0  0  0  0
  2 22  1  0  0  0  0
  2 27  1  0  0  0  0
  4  5  1  0  0  0  0
  4 12  2  0  0  0  0
  5  6  2  0  0  0  0
  5 32  1  0  0  0  0
  6  7  1  0  0  0  0
  6 11  1  0  0  0  0
  7  8  2  0  0  0  0
  7 36  1  0  0  0  0
  8  9  1  0  0  0  0
  8 37  1  0  0  0  0
  9 10  2  0  0  0  0
  9 38  1  0  0  0  0
 10 11  1  0  0  0  0
 10 39  1  0  0  0  0
 11 12  1  0  0  0  0
 12 13  1  0  0  0  0
 13 14  1  0  0  0  0
 13 15  1  0  0  0  0
 13 16  1  0  0  0  0
 14 40  1  0  0  0  0
 14 41  1  0  0  0  0
 14 42  1  0  0  0  0
 15 43  1  0  0  0  0
 15 44  1  0  0  0  0
 15 45  1  0  0  0  0
 16 17  1  0  0  0  0
 16 18  1  0  0  0  0
 16 19  1  0  0  0  0
 17 46  1  0  0  0  0
 17 47  1  0  0  0  0
 17 48  1  0  0  0  0
 18 49  1  0  0  0  0
 18 50  1  0  0  0  0
 18 51  1  0  0  0  0
 19 20  1  0  0  0  0
 19 27  2  0  0  0  0
 20 21  1  0  0  0  0
 21 22  2  0  0  0  0
 21 28  1  0  0  0  0
 22 23  1  0  0  0  0
 22 27  1  0  0  0  0
 23 24  2  0  0  0  0
 23 52  1  0  0  0  0
 24 25  1  0  0  0  0
 24 53  1  0  0  0  0
 25 26  2  0  0  0  0
 25 54  1  0  0  0  0
 26 27  1  0  0  0  0
 26 55  1  0  0  0  0
 28 29  1  0  0  0  0
 28 30  1  0  0  0  0
 28 31  1  0  0  0  0
 29 56  1  0  0  0  0
 29 57  1  0  0  0  0
 29 58  1  0  0  0  0
 30 59  1  0  0  0  0
 30 60  1  0  0  0  0
 30 61  1  0  0  0  0
 31 62  1  0  0  0  0
 31 63  1  0  0  0  0
 31 64  1  0  0  0  0
 32 33  1  0  0  0  0
 32 34  1  0  0  0  0
 32 35  1  0  0  0  0
 33 65  1  0  0  0  0
 33 66  1  0  0  0  0
 33 67  1  0  0  0  0
 34 68  1  0  0  0  0
 34 69  1  0  0  0  0
 34 70  1  0  0  0  0
 35 71  1  0  0  0  0
 35 72  1  0  0  0  0
 35 73  1  0  0  0  0
M  END
$$$$
