
  --CCDC--092525    3D                              

111119  0  0  0  0  0  0  0  0999 V2000
    0.4249    0.1624    2.7170 H      0
    1.0757   -0.5372    2.2032 C      0
    0.9774   -0.8184    0.9168 N      0
   -0.0226   -0.4219   -0.0368 C      0
    0.3059    0.3578   -0.7550 H      0
   -1.1217    0.2559    0.7539 C      0
   -2.0844   -0.4686    1.4468 C      0
   -2.0815   -1.5517    1.3926 H      0
   -3.0526    0.1679    2.2051 C      0
   -3.7875   -0.4178    2.7474 H      0
   -3.0820    1.5425    2.2752 C      0
   -3.8351    2.0419    2.8762 H      0
   -2.1480    2.2778    1.5787 C      0
   -2.1691    3.3610    1.6282 H      0
   -1.1779    1.6409    0.8214 C      0
   -0.4455    2.2328    0.2823 H      0
   -0.4798   -1.6062   -0.9326 C      0
   -1.5677   -1.7189   -0.7406 H      0
   -0.4510   -1.2862   -2.4091 C      0
   -1.5024   -1.6961   -3.2174 C      0
   -2.3163   -2.2691   -2.7855 H      0
   -1.5333   -1.3762   -4.5646 C      0
   -2.3681   -1.6980   -5.1783 H      0
   -0.5098   -0.6459   -5.1267 C      0
   -0.5409   -0.3831   -6.1790 H      0
    0.5536   -0.2527   -4.3449 C      0
    1.3660    0.3172   -4.7842 H      0
    0.5875   -0.5792   -2.9992 C      0
    1.4354   -0.2681   -2.4040 H      0
    0.3193   -2.7841   -0.7192 N      0
    0.0398   -4.0468   -0.9579 C      0
   -0.6727   -4.3667   -1.7114 H      0
    0.8015   -4.9972   -0.0962 C      0
    0.6355   -4.7604    0.9600 H      0
    0.4308   -6.0186   -0.2484 H      0
    2.5756   -4.9140   -0.4764 P      0
    2.9518   -5.2419   -2.2254 C      0
    2.1268   -4.8570   -3.2880 C      0
    1.1884   -4.3528   -3.1087 H      0
    2.4823   -5.1251   -4.5984 C      0
    1.8269   -4.8047   -5.4015 H      0
    3.6507   -5.7961   -4.9116 C      0
    4.0395   -6.0657   -6.3444 C      0
    3.3362   -5.5981   -7.0302 H      0
    4.0508   -7.1346   -6.5466 H      0
    5.0313   -5.6702   -6.5530 H      0
    4.4509   -6.2126   -3.8634 C      0
    5.3641   -6.7572   -4.0785 H      0
    4.1117   -5.9538   -2.5481 C      0
    4.7612   -6.3208   -1.7614 H      0
    4.1135   -5.2065    0.4399 C      0
    4.1478   -6.0802    1.5311 C      0
    3.2462   -6.5891    1.8554 H      0
    5.3287   -6.3049    2.2142 C      0
    5.3309   -6.9889    3.0564 H      0
    6.5067   -5.6760    1.8491 C      0
    7.7857   -5.9220    2.6099 C      0
    7.7140   -6.8335    3.1997 H      0
    7.9926   -5.0952    3.2860 H      0
    8.6278   -6.0229    1.9284 H      0
    6.4762   -4.8244    0.7578 C      0
    7.3899   -4.3298    0.4452 H      0
    5.3060   -4.5902    0.0587 C      0
    5.3156   -3.9181   -0.7929 H      0
    2.2539   -2.4554    0.2382 Fe     0
    4.3119   -1.9228    0.8097 N      0
    5.3727   -1.6207    1.1034 C      0
    6.7305   -1.2184    1.4426 C      0
    7.2783   -0.9239    0.5496 H      0
    6.7221   -0.3750    2.1298 H      0
    7.2685   -2.0363    1.9169 H      0
    3.1298   -1.5982   -1.5881 N      0
    3.5844   -1.1533   -2.5361 C      0
    4.1625   -0.6199   -3.7617 C      0
    4.2182   -1.3890   -4.5293 H      0
    5.1692   -0.2465   -3.5832 H      0
    3.5601    0.1999   -4.1474 H      0
    2.0377   -3.0194    2.7366 P      0
    0.4194   -3.6420    3.2485 C      0
   -0.7315   -3.2614    2.5624 C      0
   -0.6478   -2.6062    1.7024 H      0
   -1.9721   -3.7126    2.9747 C      0
   -2.8582   -3.3988    2.4330 H      0
   -2.1065   -4.5553    4.0664 C      0
   -3.4631   -5.0547    4.4993 C      0
   -4.1709   -5.0096    3.6743 H      0
   -3.8547   -4.4512    5.3157 H      0
   -3.4024   -6.0867    4.8385 H      0
   -0.9570   -4.9399    4.7380 C      0
   -1.0371   -5.6037    5.5922 H      0
    0.2916   -4.4930    4.3455 C      0
    1.1741   -4.8029    4.8947 H      0
    3.2423   -3.1224    4.0839 C      0
    4.5914   -3.3385    3.8038 C      0
    4.9078   -3.5095    2.7807 H      0
    5.5292   -3.3418    4.8202 C      0
    6.5733   -3.5112    4.5783 H      0
    5.1633   -3.1301    6.1393 C      0
    6.1957   -3.1083    7.2402 C      0
    6.3476   -4.1063    7.6459 H      0
    5.8807   -2.4563    8.0525 H      0
    7.1505   -2.7452    6.8658 H      0
    3.8221   -2.9186    6.4149 C      0
    3.5144   -2.7482    7.4410 H      0
    2.8686   -2.9153    5.4123 C      0
    1.8260   -2.7433    5.6588 H      0
    2.1981   -1.2178    2.9140 C      0
    3.1656   -0.8536    2.5549 H      0
    2.1518   -0.9424    3.9742 H      0
    2.3076   -6.1021    0.2117 H      0
    2.8928   -4.0334    2.3078 H      0
  1  2  1
  2  3  2
  3  4  1
  4  5  1
  4  6  1
  6  7  4
  7  8  1
  7  9  4
  9 10  1
  9 11  4
 11 12  1
 11 13  4
 13 14  1
 13 15  4
  6 15  4
 15 16  1
  4 17  1
 17 18  1
 17 19  1
 19 20  4
 20 21  1
 20 22  4
 22 23  1
 22 24  4
 24 25  1
 24 26  4
 26 27  1
 26 28  4
 19 28  4
 28 29  1
 17 30  1
 30 31  2
 31 32  1
 31 33  1
 33 34  1
 33 35  1
 33 36  1
 36 37  1
 37 38  4
 38 39  1
 38 40  4
 40 41  1
 40 42  4
 42 43  1
 43 44  1
 43 45  1
 43 46  1
 42 47  4
 47 48  1
 47 49  4
 37 49  4
 49 50  1
 36 51  1
 51 52  4
 52 53  1
 52 54  4
 54 55  1
 54 56  4
 56 57  1
 57 58  1
 57 59  1
 57 60  1
 56 61  4
 61 62  1
 61 63  4
 51 63  4
 63 64  1
 36 65  1
  3 65  1
 30 65  1
 65 66  1
 66 67  3
 67 68  1
 68 69  1
 68 70  1
 68 71  1
 65 72  1
 72 73  3
 73 74  1
 74 75  1
 74 76  1
 74 77  1
 65 78  1
 78 79  1
 79 80  4
 80 81  1
 80 82  4
 82 83  1
 82 84  4
 84 85  1
 85 86  1
 85 87  1
 85 88  1
 84 89  4
 89 90  1
 89 91  4
 79 91  4
 91 92  1
 78 93  1
 93 94  4
 94 95  1
 94 96  4
 96 97  1
 96 98  4
 98 99  1
 99100  1
 99101  1
 99102  1
 98103  4
103104  1
103105  4
 93105  4
105106  1
 78107  1
  2107  1
107108  1
107109  1
 36110  1
 78111  1
M  END
$$$$
