
  --CCDC--092525    3D                              

 53 52  0  0  0  0  0  0  0  0999 V2000
   -0.0674   -0.0174    0.0023 C      0
    1.9170   -0.0032   -0.6841 Rh     0
    2.8433    0.0028    1.9821 I      0
    1.6798    2.7940   -0.3907 I      0
    1.9175   -2.1015   -0.6497 C      0
    1.9218   -3.2419   -0.6226 O      0
    1.1007   -0.0085   -3.0336 P      0
    1.6316   -1.4808   -3.9479 C      0
    0.8879   -1.7174   -5.2585 C      0
    1.6005    1.4958   -3.9087 C      0
    0.9919    1.6421   -5.2993 C      0
   -0.7088   -0.0215   -3.0163 C      0
   -1.2894   -1.3884   -2.6751 C      0
    4.2779    0.0124   -1.5241 P      0
    4.8519   -1.4033   -2.5061 C      0
    4.4979   -2.8066   -2.0326 C      0
    5.4394    0.0434   -0.1339 C      0
    5.5792   -1.3009    0.5683 C      0
    4.8268    1.3873   -2.5739 C      0
    4.3017    2.7737   -2.2519 C      0
   -0.6040    0.8381   -0.3981 H      0
   -0.0637    0.0555    1.0907 H      0
   -0.5683   -0.9396   -0.2735 H      0
    1.4816   -2.3594   -3.3077 H      0
    2.7024   -1.4050   -4.1605 H      0
    1.1555   -2.6861   -5.6721 H      0
    1.1272   -0.9667   -6.0040 H      0
   -0.1871   -1.7065   -5.1098 H      0
    2.6915    1.5243   -3.9976 H      0
    1.2987    2.3624   -3.3090 H      0
    1.4990    1.0123   -6.0262 H      0
    1.0795    2.6702   -5.6485 H      0
   -0.0647    1.3808   -5.2967 H      0
   -1.0844    0.2840   -4.0015 H      0
   -1.0648    0.7246   -2.2965 H      0
   -1.4496   -1.9823   -3.5702 H      0
   -2.2482   -1.2855   -2.1716 H      0
   -0.6215   -1.9525   -2.0310 H      0
    5.9466   -1.3313   -2.5277 H      0
    4.5306   -1.2964   -3.5472 H      0
    3.5870   -3.1559   -2.5135 H      0
    4.3351   -2.8554   -0.9605 H      0
    5.2965   -3.5031   -2.2803 H      0
    5.1503    0.8282    0.5748 H      0
    6.4315    0.3106   -0.5221 H      0
    4.6180   -1.7951    0.6756 H      0
    6.0164   -1.1807    1.5552 H      0
    6.2148   -1.9688   -0.0081 H      0
    4.5822    1.1687   -3.6193 H      0
    5.9226    1.4214   -2.5191 H      0
    4.8947    3.5366   -2.7492 H      0
    4.3118    2.9722   -1.1811 H      0
    3.2872    2.8744   -2.6232 H      0
  1  2  1
  2  3  1
  2  4  1
  2  5  1
  5  6  3
  2  7  1
  7  8  1
  8  9  1
  7 10  1
 10 11  1
  7 12  1
 12 13  1
  2 14  1
 14 15  1
 15 16  1
 14 17  1
 17 18  1
 14 19  1
 19 20  1
  1 21  1
  1 22  1
  1 23  1
  8 24  1
  8 25  1
  9 26  1
  9 27  1
  9 28  1
 10 29  1
 10 30  1
 11 31  1
 11 32  1
 11 33  1
 12 34  1
 12 35  1
 13 36  1
 13 37  1
 13 38  1
 15 39  1
 15 40  1
 16 41  1
 16 42  1
 16 43  1
 17 44  1
 17 45  1
 18 46  1
 18 47  1
 18 48  1
 19 49  1
 19 50  1
 20 51  1
 20 52  1
 20 53  1
M  END
$$$$
