
     RDKit          3D

 29 30  0  0  0  0  0  0  0  0999 V2000
   -2.5560    3.3915    1.6627 Cl  0  0  0  0  0  0  0  0  0  0  0  0
   -0.8587    2.5949    1.6688 Au  0  0  0  0  0  3  0  0  0  0  0  0
   -0.2066    1.0090    0.6204 C   0  0  0  0  0  0  0  0  0  0  0  0
   -1.1830    0.4565   -0.2130 N   0  0  0  0  0  0  0  0  0  0  0  0
   -2.6298    0.5370   -0.1332 C   0  0  0  0  0  0  0  0  0  0  0  0
   -3.1026   -0.9013   -0.2795 C   0  0  0  0  0  0  0  0  0  0  0  0
   -1.9065   -1.5990   -0.9387 C   0  0  0  0  0  0  0  0  0  0  0  0
   -1.1272   -0.3659   -1.4142 C   0  0  0  0  0  0  0  0  0  0  0  0
    1.1040    0.5298    0.7368 N   0  0  0  0  0  0  0  0  0  0  0  0
    1.5368   -0.8041    1.1102 C   0  0  0  0  0  0  0  0  0  0  0  0
    2.7630   -1.0066    0.2414 C   0  0  0  0  0  0  0  0  0  0  0  0
    3.3966    0.3694    0.2670 C   0  0  0  0  0  0  0  0  0  0  0  0
    2.2788    1.3460    0.4863 C   0  0  0  0  0  0  0  0  0  0  0  0
   -3.0088    1.0294    0.7653 H   0  0  0  0  0  0  0  0  0  0  0  0
   -2.9887    1.0748   -1.0485 H   0  0  0  0  0  0  0  0  0  0  0  0
   -3.3583   -1.3437    0.6960 H   0  0  0  0  0  0  0  0  0  0  0  0
   -3.9432   -0.9967   -0.9968 H   0  0  0  0  0  0  0  0  0  0  0  0
   -2.2258   -2.2452   -1.7652 H   0  0  0  0  0  0  0  0  0  0  0  0
   -1.3921   -2.1397   -0.1446 H   0  0  0  0  0  0  0  0  0  0  0  0
   -1.7446    0.0532   -2.2434 H   0  0  0  0  0  0  0  0  0  0  0  0
   -0.1120   -0.6112   -1.7357 H   0  0  0  0  0  0  0  0  0  0  0  0
    0.7670   -1.5675    0.9021 H   0  0  0  0  0  0  0  0  0  0  0  0
    1.8384   -0.7554    2.1766 H   0  0  0  0  0  0  0  0  0  0  0  0
    3.4263   -1.7718    0.7383 H   0  0  0  0  0  0  0  0  0  0  0  0
    2.4995   -1.3293   -0.7717 H   0  0  0  0  0  0  0  0  0  0  0  0
    4.1223    0.4436    1.1212 H   0  0  0  0  0  0  0  0  0  0  0  0
    4.0004    0.5775   -0.6376 H   0  0  0  0  0  0  0  0  0  0  0  0
    2.1362    2.0611   -0.3409 H   0  0  0  0  0  0  0  0  0  0  0  0
    2.4747    1.9638    1.4082 H   0  0  0  0  0  0  0  0  0  0  0  0
  1  2  1  0
  2  3  2  3
  3  4  1  0
  4  5  1  0
  5  6  1  0
  6  7  1  0
  7  8  1  0
  3  9  1  0
  9 10  1  0
 10 11  1  0
 11 12  1  0
 12 13  1  0
  8  4  1  0
 13  9  1  0
  5 14  1  0
  5 15  1  0
  6 16  1  0
  6 17  1  0
  7 18  1  0
  7 19  1  0
  8 20  1  0
  8 21  1  0
 10 22  1  0
 10 23  1  0
 11 24  1  0
 11 25  1  0
 12 26  1  0
 12 27  1  0
 13 28  1  0
 13 29  1  0
M  END
