
 OpenBabel09252518113D

 43 45  0  0  0  0  0  0  0  0999 V2000
    1.0685    0.0548   -0.0480 C   0  0  0  0  0  0  0  0  0  0  0  0
    0.5618    1.0011   -1.1242 C   0  0  0  0  0  0  0  0  0  0  0  0
    1.0518    0.5573   -2.4372 N   0  0  0  0  0  4  0  0  0  0  0  0
    0.3618   -1.3563   -2.8204 Pt  0  0  0  0  0  0  0  0  0  0  0  0
    1.0023   -2.7210   -2.9410 N   0  0  0  0  0  4  0  0  0  0  0  0
    0.1937   -3.5958   -1.5454 C   0  0  0  0  0  0  0  0  0  0  0  0
   -0.5383   -4.8816   -1.8934 C   0  0  0  0  0  0  0  0  0  0  0  0
   -0.8169   -2.2469   -0.9713 C   0  0  0  0  0  0  0  0  0  0  0  0
   -1.6565   -2.1628    0.0024 C   0  0  0  0  0  0  0  0  0  0  0  0
   -2.3356   -0.9633    0.2586 C   0  0  0  0  0  0  0  0  0  0  0  0
   -2.0912    0.1399   -0.5757 C   0  0  0  0  0  0  0  0  0  0  0  0
   -1.2203    0.0422   -1.5804 C   0  0  0  0  0  0  0  0  0  0  0  0
   -0.5282   -1.1781   -1.8310 C   0  0  0  0  0  0  0  0  0  0  0  0
    0.1360   -1.7282   -4.8442 N   0  0  0  0  0  0  0  0  0  0  0  0
   -0.2954   -2.9019   -5.2532 C   0  0  0  0  0  0  0  0  0  0  0  0
   -0.7121   -4.0357   -5.6483 O   0  0  0  0  0  0  0  0  0  0  0  0
   -0.9582    1.0011   -1.1242 C   0  0  0  0  0  0  0  0  0  0  0  0
   -1.6819   -0.2214   -1.0478 C   0  0  0  0  0  0  0  0  0  0  0  0
   -3.0542   -0.2295   -1.3466 C   0  0  0  0  0  0  0  0  0  0  0  0
   -3.7104    0.8909   -1.4218 C   0  0  0  0  0  0  0  0  0  0  0  0
   -3.0524    2.1069   -1.1946 C   0  0  0  0  0  0  0  0  0  0  0  0
   -1.6368    2.1474   -1.1958 C   0  0  0  0  0  0  0  0  0  0  0  0
    0.7118   -0.9344   -0.2461 H   0  0  0  0  0  0  0  0  0  0  0  0
    0.7118    0.3778    0.9077 H   0  0  0  0  0  0  0  0  0  0  0  0
    2.1385    0.0548   -0.0480 H   0  0  0  0  0  0  0  0  0  0  0  0
    0.9185    1.9903   -0.9261 H   0  0  0  0  0  0  0  0  0  0  0  0
    0.7118    1.1923   -3.1594 H   0  0  0  0  0  0  0  0  0  0  0  0
    2.0718    0.5573   -2.4372 H   0  0  0  0  0  0  0  0  0  0  0  0
    0.8813   -3.1681   -3.8497 H   0  0  0  0  0  0  0  0  0  0  0  0
    2.0140   -2.6739   -2.8202 H   0  0  0  0  0  0  0  0  0  0  0  0
    0.8968   -3.9199   -0.8068 H   0  0  0  0  0  0  0  0  0  0  0  0
    0.1601   -5.5982   -2.2724 H   0  0  0  0  0  0  0  0  0  0  0  0
   -1.0096   -5.2724   -1.0159 H   0  0  0  0  0  0  0  0  0  0  0  0
   -1.2806   -4.6794   -2.6370 H   0  0  0  0  0  0  0  0  0  0  0  0
   -1.8373   -3.0167    0.6213 H   0  0  0  0  0  0  0  0  0  0  0  0
   -3.0258   -0.8898    1.0729 H   0  0  0  0  0  0  0  0  0  0  0  0
   -2.6058    1.0622   -0.4041 H   0  0  0  0  0  0  0  0  0  0  0  0
   -1.0388    0.8907   -2.2066 H   0  0  0  0  0  0  0  0  0  0  0  0
   -1.1854   -1.1262   -0.7654 H   0  0  0  0  0  0  0  0  0  0  0  0
   -3.5600   -1.1578   -1.5124 H   0  0  0  0  0  0  0  0  0  0  0  0
   -4.7541    0.8840   -1.6575 H   0  0  0  0  0  0  0  0  0  0  0  0
   -3.6161    2.9996   -1.0210 H   0  0  0  0  0  0  0  0  0  0  0  0
   -1.1198    3.0825   -1.2534 H   0  0  0  0  0  0  0  0  0  0  0  0
  1  2  1  0  0  0  0
  1 23  1  0  0  0  0
  1 24  1  0  0  0  0
  1 25  1  0  0  0  0
  2  3  1  0  0  0  0
  2 17  1  0  0  0  0
  2 26  1  0  0  0  0
  3  4  1  0  0  0  0
  3 27  1  0  0  0  0
  3 28  1  0  0  0  0
  4  5  1  0  0  0  0
  4 13  1  0  0  0  0
  4 14  1  0  0  0  0
  5  6  1  0  0  0  0
  5 29  1  0  0  0  0
  5 30  1  0  0  0  0
  6  7  1  0  0  0  0
  6  8  1  0  0  0  0
  6 31  1  0  0  0  0
  7 32  1  0  0  0  0
  7 33  1  0  0  0  0
  7 34  1  0  0  0  0
  8  9  1  0  0  0  0
  8 13  2  0  0  0  0
  9 10  2  0  0  0  0
  9 35  1  0  0  0  0
 10 11  1  0  0  0  0
 10 36  1  0  0  0  0
 11 12  2  0  0  0  0
 11 37  1  0  0  0  0
 12 13  1  0  0  0  0
 12 38  1  0  0  0  0
 14 15  2  0  0  0  0
 15 16  2  0  0  0  0
 17 18  1  0  0  0  0
 17 22  2  0  0  0  0
 18 19  2  0  0  0  0
 18 39  1  0  0  0  0
 19 20  1  0  0  0  0
 19 40  1  0  0  0  0
 20 21  2  0  0  0  0
 20 41  1  0  0  0  0
 21 22  1  0  0  0  0
 21 42  1  0  0  0  0
 22 43  1  0  0  0  0
M  END
$$$$
