
     RDKit          3D

  0  0  0  0  0  0  0  0  0  0999 V3000
M  V30 BEGIN CTAB
M  V30 COUNTS 43 45 0 0 0
M  V30 BEGIN ATOM
M  V30 1 C 2.310772 -1.510604 -1.544447 0
M  V30 2 C 1.701463 -0.427395 -0.651759 0
M  V30 3 N 1.002719 -1.049606 0.460350 0
M  V30 4 Pt -0.723735 -1.375655 0.042546 0 VAL=4
M  V30 5 N -1.465721 -0.434954 -1.435695 0
M  V30 6 C -2.701847 0.143765 -1.127814 0
M  V30 7 C -2.925302 1.467604 -1.796388 0
M  V30 8 C -2.978420 0.313873 0.298584 0
M  V30 9 C -4.003125 0.998839 0.892398 0
M  V30 10 C -4.112070 0.940845 2.264040 0
M  V30 11 C -3.228368 0.221790 3.048601 0
M  V30 12 C -2.152029 -0.505552 2.484063 0
M  V30 13 C -2.088817 -0.417781 1.117463 0
M  V30 14 N -1.160906 -3.305637 0.055366 0
M  V30 15 C -1.748362 -3.749391 -0.939108 0
M  V30 16 O -2.185931 -4.471567 -1.837477 0
M  V30 17 C 2.821754 0.402714 -0.143943 0
M  V30 18 C 4.026193 0.410269 -0.847805 0
M  V30 19 C 5.041119 1.222971 -0.316353 0
M  V30 20 C 4.905594 1.976969 0.819507 0
M  V30 21 C 3.673737 1.926087 1.485841 0
M  V30 22 C 2.633753 1.130465 0.992941 0
M  V30 23 H 2.542629 -1.083925 -2.533788 0
M  V30 24 H 3.310311 -1.833572 -1.129526 0
M  V30 25 H 1.644608 -2.370118 -1.624276 0
M  V30 26 H 1.112053 0.194634 -1.302451 0
M  V30 27 H 1.140777 -0.551046 1.342504 0
M  V30 28 H 1.544727 -1.962499 0.604791 0
M  V30 29 H -0.744890 0.169851 -1.859015 0
M  V30 30 H -1.629496 -1.196778 -2.169245 0
M  V30 31 H -3.562173 -0.510488 -1.570493 0
M  V30 32 H -3.600727 1.472331 -2.668947 0
M  V30 33 H -1.930612 1.945849 -2.084194 0
M  V30 34 H -3.328713 2.238648 -1.076865 0
M  V30 35 H -4.669740 1.514594 0.223987 0
M  V30 36 H -4.938130 1.498110 2.733179 0
M  V30 37 H -3.322719 0.174353 4.108755 0
M  V30 38 H -1.414675 -1.069171 3.002769 0
M  V30 39 H 4.194612 -0.140038 -1.738831 0
M  V30 40 H 5.983733 1.261753 -0.824216 0
M  V30 41 H 5.687522 2.582659 1.218982 0
M  V30 42 H 3.558188 2.542327 2.400608 0
M  V30 43 H 1.780242 1.214475 1.625360 0
M  V30 END ATOM
M  V30 BEGIN BOND
M  V30 1 1 1 2
M  V30 2 1 2 3
M  V30 3 9 3 4
M  V30 4 9 5 4
M  V30 5 1 5 6
M  V30 6 1 6 7
M  V30 7 1 6 8
M  V30 8 2 8 9
M  V30 9 1 9 10
M  V30 10 2 10 11
M  V30 11 1 11 12
M  V30 12 2 12 13
M  V30 13 1 4 14
M  V30 14 2 14 15
M  V30 15 2 15 16
M  V30 16 1 2 17
M  V30 17 2 17 18
M  V30 18 1 18 19
M  V30 19 2 19 20
M  V30 20 1 20 21
M  V30 21 2 21 22
M  V30 22 1 13 4
M  V30 23 1 22 17
M  V30 24 1 13 8
M  V30 25 1 1 23
M  V30 26 1 1 24
M  V30 27 1 1 25
M  V30 28 1 2 26
M  V30 29 1 3 27
M  V30 30 1 3 28
M  V30 31 1 5 29
M  V30 32 1 5 30
M  V30 33 1 6 31
M  V30 34 1 7 32
M  V30 35 1 7 33
M  V30 36 1 7 34
M  V30 37 1 9 35
M  V30 38 1 10 36
M  V30 39 1 11 37
M  V30 40 1 12 38
M  V30 41 1 18 39
M  V30 42 1 19 40
M  V30 43 1 20 41
M  V30 44 1 21 42
M  V30 45 1 22 43
M  V30 END BOND
M  V30 END CTAB
M  END
