
  --CCDC--092525    3D                              

 48 56  0  0  0  0  0  0  0  0999 V2000
    4.3627   -1.7129   -0.1143 H      0
    3.5873   -1.1034   -0.5664 C      0
    2.3124   -1.1166   -0.0159 C      0
    2.0870   -1.7439    0.8401 H      0
    1.3449   -0.3223   -0.5726 C      0
    1.6406    0.5198   -1.6508 C      0
    0.5605    1.3319   -2.0548 C      0
    0.7760    1.8710   -3.3475 C      0
    0.0139    2.4447   -3.8645 H      0
    1.9944    1.7984   -4.0096 C      0
    2.0945    2.2853   -4.9740 H      0
    3.0697    1.1540   -3.4882 C      0
    4.0230    1.1517   -4.0064 H      0
    2.9022    0.4521   -2.2821 C      0
    3.8889   -0.3589   -1.6722 C      0
    4.8870   -0.4030   -2.0954 H      0
   -1.2603    1.4817   -0.9093 Ir     0
   -1.4330    0.7488   -3.1900 Cl     0
   -0.9606   -0.5717   -1.2298 C      0
   -1.7787   -1.2130   -0.8793 H      0
   -0.4950   -0.8139   -2.1931 H      0
   -0.1047   -0.1238   -0.2482 C      0
   -0.4109   -0.2040    0.7895 H      0
   -1.2929    2.6350    0.6970 C      0
    0.0903    2.0261    1.0419 C      0
    0.8315    1.8528    0.2920 H      0
    0.0429    1.2438    1.7943 H      0
    0.5691    2.8233    1.6067 H      0
   -2.4932    1.7118    0.7227 C      0
   -2.7575    0.3742    1.4172 C      0
   -3.6417    0.4362    2.0482 H      0
   -1.9148    0.0907    2.0442 H      0
   -2.9179   -0.4154    0.6861 H      0
   -3.2219    1.8212   -0.5324 C      0
   -4.1332    0.8697   -1.3041 C      0
   -3.9756   -0.1586   -0.9856 H      0
   -3.9369    0.9279   -2.3725 H      0
   -5.1792    1.1191   -1.1384 H      0
   -2.6357    2.9569   -1.2957 C      0
   -2.6515    3.3602   -2.7930 C      0
   -3.4427    2.8191   -3.3077 H      0
   -1.7378    3.1808   -3.3424 H      0
   -2.8768    4.4207   -2.8840 H      0
   -1.4204    3.4277   -0.6068 C      0
   -0.0979    3.5189   -1.4039 C      0
    0.7890    2.9856   -1.1108 H      0
    0.2309    4.5103   -1.0995 H      0
   -0.1919    3.7128   -2.4592 H      0
  1  2  1
  2  3  4
  3  4  1
  3  5  4
  5  6  4
  6  7  4
  7  8  4
  8  9  1
  8 10  4
 10 11  1
 10 12  4
 12 13  1
 12 14  4
  6 14  4
 14 15  4
  2 15  4
 15 16  1
  7 17  1
 17 18  1
 17 19  1
 19 20  1
 19 21  1
 19 22  2
  5 22  1
 17 22  1
 22 23  1
 17 24  1
 24 25  1
 25 26  1
 25 27  1
 25 28  1
 24 29  4
 17 29  1
 29 30  1
 30 31  1
 30 32  1
 30 33  1
 29 34  4
 17 34  1
 34 35  1
 35 36  1
 35 37  1
 35 38  1
 34 39  4
 17 39  1
 39 40  1
 40 41  1
 40 42  1
 40 43  1
 39 44  4
 24 44  4
 17 44  1
 44 45  1
 45 46  1
 45 47  1
 45 48  1
M  END
$$$$
