
  --CCDC--081225    3D                              

 32 34  0  0  0  0  0  0  0  0999 V2000
    0.0116   -0.1407    0.0097 C      0
    1.4458    0.0017   -0.5106 C      0
    2.2421   -1.2205   -0.1603 C      0
    2.7666   -2.0700   -1.0013 C      0
    2.1158    1.2581    0.0752 C      0
    1.8942    1.1980    1.5313 N      0
    2.6321    0.4224    2.1475 N      0
    3.2413   -0.2897    2.9458 N      0
    1.5415    2.5359   -0.5050 C      0
    0.6874    3.3899   -1.3073 C      0
    0.5015    5.0126   -1.5660 C      0
    1.1205    6.2421   -1.0901 C      0
    1.3955    7.7236   -0.9261 C      0
    2.0729    4.5769   -0.1580 Fe     0
    1.8866    5.5245    1.8171 C      0
    1.7900    6.0157    2.8409 O      0
    4.0895    5.2861   -0.6717 C      0
    5.1352    5.6497   -0.9346 O      0
    3.5732    3.7878    1.2457 C      0
    4.3434    3.3754    1.9780 O      0
   -0.5724    0.7481   -0.2203 H      0
    0.0042   -0.2806    1.0888 H      0
   -0.4824   -0.9969   -0.4456 H      0
    1.4121    0.0974   -1.6070 H      0
    2.3984   -1.4171    0.8953 H      0
    2.6419   -1.9234   -2.0691 H      0
    3.3275   -2.9224   -0.6326 H      0
    3.1962    1.2197   -0.1324 H      0
    0.7265    8.3137   -1.5486 H      0
    2.4171    7.9690   -1.2096 H      0
    1.2525    8.0388    0.1061 H      0
    3.7222    0.2566    3.6574 H      0
  1  2  1
  2  3  1
  3  4  2
  2  5  1
  5  6  1
  6  7  2
  7  8  2
  5  9  1
  9 10  2
 10 11  1
 11 12  2
 12 13  1
 12 14  1
  9 14  1
 10 14  1
 11 14  1
 14 15  1
 15 16  3
 14 17  1
 17 18  3
 14 19  1
 19 20  3
  1 21  1
  1 22  1
  1 23  1
  2 24  1
  3 25  1
  4 26  1
  4 27  1
  5 28  1
 13 29  1
 13 30  1
 13 31  1
  8 32  1
M  END
$$$$
