
  --CCDC--081225    3D                              

114121  0  0  0  0  0  0  0  0999 V2000
    2.4120   -1.2324    0.2438 C      0
    3.7179   -0.8842    0.6240 O      0
    4.6570   -1.7991    0.1101 C      0
    4.9431   -1.3901   -1.3066 C      0
    5.5439   -0.1142   -1.3029 O      0
    6.9344   -0.2094   -1.4708 C      0
    4.4863    1.6473    0.3857 Eu     0
    5.4683    1.2518    2.8277 N      0
    6.0295    1.0342    4.0187 C      0
    6.7487    0.7554    5.5450 S      0
    2.0217    2.2681    1.2036 N      0
    1.5063    1.7934    2.4640 C      0
    0.5013    2.4227    3.2064 C      0
   -0.7340    1.7723    3.1192 C      0
   -0.7849    0.4562    2.6898 C      0
    0.4014   -0.2544    2.6181 C      0
    1.6026    0.4334    2.7976 C      0
    2.7774   -0.2413    3.4801 C      0
    2.5900   -1.7567    3.5625 C      0
    2.9030    0.3199    4.8960 C      0
    0.7203    3.5868    4.1634 C      0
    0.7879    3.1336    5.6228 C      0
   -0.3135    4.6977    4.0128 C      0
    1.2387    3.0266    0.2310 C      0
    1.6604    3.0107   -1.1153 C      0
    2.8349    2.3332   -1.5583 N      0
    3.0571    2.0625   -2.9430 C      0
    2.2001    1.1130   -3.5384 C      0
    2.2672    0.9285   -4.9162 C      0
    3.1812    1.6173   -5.6885 C      0
    4.0581    2.4987   -5.0851 C      0
    4.0238    2.7383   -3.7103 C      0
    5.0022    3.7295   -3.1157 C      0
    4.8725    5.1117   -3.7557 C      0
    6.4265    3.2137   -3.3047 C      0
    1.2296    0.2355   -2.7612 C      0
   -0.2310    0.5348   -3.0992 C      0
    1.4641   -1.2344   -3.1080 C      0
    0.6908    3.6720   -1.9870 C      0
    0.5490    3.9396   -3.3319 C      0
   -0.5497    4.6473   -3.7976 C      0
   -1.5133    5.1093   -2.9499 C      0
   -1.4171    4.8483   -1.5630 C      0
   -2.3451    5.2768   -0.5954 C      0
   -2.1256    4.9648    0.7114 C      0
   -1.0118    4.2473    1.1362 C      0
   -0.0612    3.7619    0.2499 C      0
   -0.3029    4.1109   -1.1023 C      0
    6.9697    2.5675    0.1494 O      0
    8.0290    1.8104    0.6808 C      0
    7.1668    3.9158    0.5251 C      0
    6.0242    4.7753    0.0706 C      0
    4.8254    4.2677    0.6112 O      0
    3.7254    5.1038    0.3649 C      0
    1.7296   -0.3961    0.3754 H      0
    2.0452   -2.0697    0.8346 H      0
    2.3824   -1.5230   -0.8023 H      0
    4.2559   -2.8204    0.1456 H      0
    5.5789   -1.7925    0.7044 H      0
    5.6002   -2.1220   -1.7952 H      0
    4.0188   -1.3654   -1.8862 H      0
    7.4179   -0.4849   -0.5358 H      0
    7.3547    0.7338   -1.8080 H      0
    7.1804   -0.9660   -2.2127 H      0
   -1.6546    2.2718    3.4035 H      0
   -1.7367   -0.0276    2.4945 H      0
    0.3767   -1.3290    2.4714 H      0
    3.6988   -0.0347    2.9278 H      0
    3.2888   -2.2005    4.2681 H      0
    2.7514   -2.2173    2.5901 H      0
    1.5801   -2.0020    3.8855 H      0
    3.7545   -0.1188    5.4121 H      0
    2.0090    0.1095    5.4791 H      0
    3.0420    1.3996    4.8650 H      0
    1.7029    4.0174    3.9157 H      0
    1.5218    2.3388    5.7431 H      0
   -0.1756    2.7541    5.9573 H      0
    1.0763    3.9590    6.2709 H      0
   -0.3469    5.3043    4.9152 H      0
   -0.0612    5.3475    3.1783 H      0
   -1.3070    4.2920    3.8445 H      0
    1.5900    0.2265   -5.3908 H      0
    3.2141    1.4614   -6.7617 H      0
    4.7837    3.0147   -5.7038 H      0
    4.7847    3.8173   -2.0409 H      0
    3.8592    5.4935   -3.6503 H      0
    5.1144    5.0739   -4.8156 H      0
    5.5517    5.8190   -3.2853 H      0
    6.6496    3.0771   -4.3612 H      0
    6.5475    2.2570   -2.8025 H      0
    7.1530    3.9100   -2.8921 H      0
    1.3917    0.3853   -1.6819 H      0
   -0.8867   -0.1831   -2.6108 H      0
   -0.3968    0.4634   -4.1715 H      0
   -0.5239    1.5292   -2.7784 H      0
    1.0962   -1.8816   -2.3134 H      0
    2.5183   -1.4426   -3.2474 H      0
    0.9543   -1.5013   -4.0315 H      0
    1.3030    3.5985   -4.0332 H      0
   -0.6417    4.8406   -4.8615 H      0
   -2.3501    5.6800   -3.3402 H      0
   -3.2144    5.8572   -0.8877 H      0
   -2.8420    5.3059    1.4520 H      0
   -0.8929    4.1247    2.2017 H      0
    8.8443    1.7336   -0.0362 H      0
    7.7057    0.8053    0.9401 H      0
    8.4180    2.2792    1.5826 H      0
    7.2732    3.9873    1.6137 H      0
    8.1057    4.2881    0.0978 H      0
    6.1757    5.8080    0.4056 H      0
    5.9867    4.8112   -1.0214 H      0
    2.9174    4.8877    1.0600 H      0
    3.3498    4.9591   -0.6462 H      0
    4.0035    6.1486    0.4812 H      0
  1  2  1
  2  3  1
  3  4  1
  4  5  1
  5  6  1
  5  7  1
  2  7  1
  7  8  1
  8  9  4
  9 10  4
  7 11  1
 11 12  1
 12 13  4
 13 14  4
 14 15  4
 15 16  4
 16 17  4
 12 17  4
 17 18  1
 18 19  1
 18 20  1
 13 21  1
 21 22  1
 21 23  1
 11 24  1
 24 25  2
 25 26  1
  7 26  1
 26 27  1
 27 28  4
 28 29  4
 29 30  4
 30 31  4
 31 32  4
 27 32  4
 32 33  1
 33 34  1
 33 35  1
 28 36  1
 36 37  1
 36 38  1
 25 39  1
 39 40  4
 40 41  4
 41 42  4
 42 43  4
 43 44  4
 44 45  4
 45 46  4
 46 47  4
 24 47  1
 47 48  4
 39 48  4
 43 48  4
  7 49  1
 49 50  1
 49 51  1
 51 52  1
 52 53  1
  7 53  1
 53 54  1
  1 55  1
  1 56  1
  1 57  1
  3 58  1
  3 59  1
  4 60  1
  4 61  1
  6 62  1
  6 63  1
  6 64  1
 14 65  1
 15 66  1
 16 67  1
 18 68  1
 19 69  1
 19 70  1
 19 71  1
 20 72  1
 20 73  1
 20 74  1
 21 75  1
 22 76  1
 22 77  1
 22 78  1
 23 79  1
 23 80  1
 23 81  1
 29 82  1
 30 83  1
 31 84  1
 33 85  1
 34 86  1
 34 87  1
 34 88  1
 35 89  1
 35 90  1
 35 91  1
 36 92  1
 37 93  1
 37 94  1
 37 95  1
 38 96  1
 38 97  1
 38 98  1
 40 99  1
 41100  1
 42101  1
 44102  1
 45103  1
 46104  1
 50105  1
 50106  1
 50107  1
 51108  1
 51109  1
 52110  1
 52111  1
 54112  1
 54113  1
 54114  1
M  END
$$$$
