
  --CCDC--092525    3D                              

 55 54  0  0  0  0  0  0  0  0999 V2000
    1.1691   -0.0198    0.1284 H      0
    1.8025    0.6078    0.7490 C      0
    2.7088    0.8147    0.1836 H      0
    2.0941    0.0431    1.6305 H      0
    1.1100    1.9146    1.1146 C      0
    0.9909    2.4665    0.1780 H      0
    1.8344    2.4832    1.7094 H      0
   -0.4304    1.7494    2.1139 P      0
    0.3245    0.6754    3.3850 C      0
    0.6415   -0.2572    2.9041 H      0
    1.2280    1.1661    3.7675 H      0
   -0.5498    0.2988    4.5731 C      0
   -1.3997   -0.3033    4.2608 H      0
   -0.9296    1.1874    5.0728 H      0
    0.0196   -0.2779    5.2989 H      0
   -1.7551    0.5918    1.5773 C      0
   -2.1649    0.1076    2.4719 H      0
   -2.6136    1.0536    1.0804 H      0
   -1.2418   -0.5244    0.6817 C      0
   -2.0409   -1.2211    0.4373 H      0
   -0.4469   -1.0798    1.1749 H      0
   -0.8470   -0.1216   -0.2487 H      0
   -1.1396    3.2086    2.1633 O      0
   -0.0756    3.6763    3.9557 I      0
   -1.3714    2.8781    0.0628 I      0
   -2.0580    2.5765    3.0279 C      0
   -2.7636    2.0394    3.7619 O      0
   -0.1599    4.1333    1.7576 C      0
    0.0137    4.1061    0.6841 H      0
    0.7735    3.9883    2.2945 H      0
   -0.4337    5.1416    2.0066 H      0
   -2.4335    4.2190    2.0318 P      0
   -2.4727    5.4041    3.4367 C      0
   -3.4922    5.8087    3.4196 H      0
   -2.4103    4.8689    4.3912 H      0
   -1.5917    6.6505    3.4739 C      0
   -1.7755    7.2770    2.6048 H      0
   -1.8207    7.2434    4.3570 H      0
   -0.5323    6.4102    3.5059 H      0
   -2.5870    5.4502    0.6695 C      0
   -3.3305    6.1771    1.0193 H      0
   -3.0602    4.9690   -0.1950 H      0
   -1.4170    6.2720    0.1332 C      0
   -1.7727    7.0503   -0.5387 H      0
   -0.7262    5.6421   -0.4226 H      0
   -0.8617    6.7479    0.9372 H      0
   -3.8274    3.2937    1.2620 C      0
   -3.9902    2.3061    1.7096 H      0
   -3.7266    3.1526    0.1812 H      0
   -5.1348    4.0536    1.4415 C      0
   -5.9621    3.4944    1.0095 H      0
   -5.0987    5.0252    0.9541 H      0
   -5.3529    4.2122    2.4956 H      0
   -0.4442    2.3001    3.4007 H      0
   -3.4597    3.9120    2.9288 H      0
  1  2  1
  2  3  1
  2  4  1
  2  5  1
  5  6  1
  5  7  1
  5  8  1
  8  9  1
  9 10  1
  9 11  1
  9 12  1
 12 13  1
 12 14  1
 12 15  1
  8 16  1
 16 17  1
 16 18  1
 16 19  1
 19 20  1
 19 21  1
 19 22  1
  8 23  1
 23 24  1
 23 25  1
 23 26  1
 26 27  3
 23 28  1
 28 29  1
 28 30  1
 28 31  1
 23 32  1
 32 33  1
 33 34  1
 33 35  1
 33 36  1
 36 37  1
 36 38  1
 36 39  1
 32 40  1
 40 41  1
 40 42  1
 40 43  1
 43 44  1
 43 45  1
 43 46  1
 32 47  1
 47 48  1
 47 49  1
 47 50  1
 50 51  1
 50 52  1
 50 53  1
  8 54  1
 32 55  1
M  END
$$$$
