
 OpenBabel09252513263D

114121  0  0  0  0  0  0  0  0999 V2000
    0.9730   -0.0924    0.0272 C   0  0  0  0  0  0  0  0  0  0  0  0
    0.4997   -1.2496   -0.6460 O   0  0  0  0  0  0  0  0  0  0  0  0
    0.2615   -2.2165    0.2570 C   0  0  0  0  0  0  0  0  0  0  0  0
    0.5029   -3.5261   -0.3418 C   0  0  0  0  0  0  0  0  0  0  0  0
    1.6043   -3.2724   -1.3985 O   0  0  0  0  0  0  0  0  0  0  0  0
    1.4242   -4.0965   -2.5407 C   0  0  0  0  0  0  0  0  0  0  0  0
    1.3810   -1.7905   -1.7373 Eu  0  0  0  0  0  0  0  0  0  0  0  0
   -1.0319   -1.6322   -2.9157 N   0  0  0  0  0  0  0  0  0  0  0  0
   -1.4932   -0.4670   -3.3163 C   0  0  0  0  0  0  0  0  0  0  0  0
   -2.0612    0.9677   -3.8096 S   0  0  0  0  0  0  0  0  0  0  0  0
    1.7060   -4.4017   -1.1785 N   0  0  0  0  0  0  0  0  0  0  0  0
    1.0629   -4.9851    0.0077 C   0  0  0  0  0  0  0  0  0  0  0  0
   -0.2491   -4.9335    0.0929 C   0  0  0  0  0  0  0  0  0  0  0  0
   -0.8689   -5.5940    1.1481 C   0  0  0  0  0  0  0  0  0  0  0  0
   -0.1487   -6.6566    1.7382 C   0  0  0  0  0  0  0  0  0  0  0  0
    1.2344   -6.5001    1.8103 C   0  0  0  0  0  0  0  0  0  0  0  0
    1.8157   -5.6795    0.9611 C   0  0  0  0  0  0  0  0  0  0  0  0
    3.3220   -5.4839    1.0169 C   0  0  0  0  0  0  0  0  0  0  0  0
    3.7126   -4.9442    2.3831 C   0  0  0  0  0  0  0  0  0  0  0  0
    4.0150   -6.8160    0.7812 C   0  0  0  0  0  0  0  0  0  0  0  0
   -1.0670   -4.1709   -0.9366 C   0  0  0  0  0  0  0  0  0  0  0  0
   -2.0269   -5.1248   -1.6287 C   0  0  0  0  0  0  0  0  0  0  0  0
   -1.8562   -3.0721   -0.2436 C   0  0  0  0  0  0  0  0  0  0  0  0
    2.5267   -5.2452   -2.0593 C   0  0  0  0  0  0  0  0  0  0  0  0
    2.2148   -6.3939   -2.6508 C   0  0  0  0  0  0  0  0  0  0  0  0
    3.1018   -0.5978   -0.0484 N   0  0  0  0  0  0  0  0  0  0  0  0
    4.4022   -1.2208    0.2372 C   0  0  0  0  0  0  0  0  0  0  0  0
    5.2518   -1.4371   -0.7440 C   0  0  0  0  0  0  0  0  0  0  0  0
    6.4784   -2.0174   -0.4398 C   0  0  0  0  0  0  0  0  0  0  0  0
    6.9335   -1.8717    0.8897 C   0  0  0  0  0  0  0  0  0  0  0  0
    5.9559   -1.8932    1.8829 C   0  0  0  0  0  0  0  0  0  0  0  0
    4.7222   -1.5752    1.5525 C   0  0  0  0  0  0  0  0  0  0  0  0
    3.6324   -1.5931    2.6120 C   0  0  0  0  0  0  0  0  0  0  0  0
    3.5135   -2.9927    3.1929 C   0  0  0  0  0  0  0  0  0  0  0  0
    3.9858   -0.6134    3.7190 C   0  0  0  0  0  0  0  0  0  0  0  0
    4.9011   -1.0620   -2.1746 C   0  0  0  0  0  0  0  0  0  0  0  0
    5.9112   -0.0527   -2.6958 C   0  0  0  0  0  0  0  0  0  0  0  0
    4.9320   -2.3064   -3.0468 C   0  0  0  0  0  0  0  0  0  0  0  0
    3.3950   -6.9547   -3.3196 C   0  0  0  0  0  0  0  0  0  0  0  0
    3.7021   -8.1562   -4.1184 C   0  0  0  0  0  0  0  0  0  0  0  0
    4.9310   -8.3327   -4.5724 C   0  0  0  0  0  0  0  0  0  0  0  0
    6.0179   -7.3643   -4.3081 C   0  0  0  0  0  0  0  0  0  0  0  0
    5.7445   -6.2962   -3.5979 C   0  0  0  0  0  0  0  0  0  0  0  0
    6.6916   -5.2282   -3.2348 C   0  0  0  0  0  0  0  0  0  0  0  0
    6.2473   -4.2183   -2.5093 C   0  0  0  0  0  0  0  0  0  0  0  0
    4.8597   -4.0868   -2.0356 C   0  0  0  0  0  0  0  0  0  0  0  0
    3.9517   -4.9869   -2.3187 C   0  0  0  0  0  0  0  0  0  0  0  0
    4.3778   -6.1377   -3.1154 C   0  0  0  0  0  0  0  0  0  0  0  0
    2.6844   -1.0466   -1.8256 O   0  0  0  0  0  0  0  0  0  0  0  0
    3.7548   -1.9289   -1.5220 C   0  0  0  0  0  0  0  0  0  0  0  0
    2.8402   -0.5645   -3.0707 C   0  0  0  0  0  0  0  0  0  0  0  0
    1.5454   -0.4909   -3.7405 C   0  0  0  0  0  0  0  0  0  0  0  0
    0.7179   -1.6411   -3.1186 O   0  0  0  0  0  0  0  0  0  0  0  0
   -0.6522   -1.2877   -2.9997 C   0  0  0  0  0  0  0  0  0  0  0  0
    0.6164   -0.0957    1.0360 H   0  0  0  0  0  0  0  0  0  0  0  0
    0.6164    0.7829   -0.4744 H   0  0  0  0  0  0  0  0  0  0  0  0
    2.0430   -0.0924    0.0272 H   0  0  0  0  0  0  0  0  0  0  0  0
   -0.7582   -2.1574    0.5758 H   0  0  0  0  0  0  0  0  0  0  0  0
    0.9112   -2.0852    1.0970 H   0  0  0  0  0  0  0  0  0  0  0  0
    0.7952   -4.2570    0.3829 H   0  0  0  0  0  0  0  0  0  0  0  0
   -0.3864   -3.8998   -0.8048 H   0  0  0  0  0  0  0  0  0  0  0  0
    0.4275   -3.9790   -2.9118 H   0  0  0  0  0  0  0  0  0  0  0  0
    2.1231   -3.8121   -3.2994 H   0  0  0  0  0  0  0  0  0  0  0  0
    1.5864   -5.1193   -2.2717 H   0  0  0  0  0  0  0  0  0  0  0  0
   -1.8410   -5.3121    1.4951 H   0  0  0  0  0  0  0  0  0  0  0  0
   -0.6379   -7.5329    2.1091 H   0  0  0  0  0  0  0  0  0  0  0  0
    1.8094   -7.0339    2.5379 H   0  0  0  0  0  0  0  0  0  0  0  0
    3.6196   -4.7883    0.2602 H   0  0  0  0  0  0  0  0  0  0  0  0
    3.4151   -5.6398    3.1397 H   0  0  0  0  0  0  0  0  0  0  0  0
    4.7730   -4.8065    2.4223 H   0  0  0  0  0  0  0  0  0  0  0  0
    3.2248   -4.0065    2.5490 H   0  0  0  0  0  0  0  0  0  0  0  0
    3.7400   -7.1959   -0.1806 H   0  0  0  0  0  0  0  0  0  0  0  0
    5.0754   -6.6783    0.8204 H   0  0  0  0  0  0  0  0  0  0  0  0
    3.7174   -7.5116    1.5378 H   0  0  0  0  0  0  0  0  0  0  0  0
   -0.4114   -3.7360   -1.6618 H   0  0  0  0  0  0  0  0  0  0  0  0
   -2.6824   -5.5597   -0.9034 H   0  0  0  0  0  0  0  0  0  0  0  0
   -2.6026   -4.5879   -2.3534 H   0  0  0  0  0  0  0  0  0  0  0  0
   -1.4713   -5.8983   -2.1165 H   0  0  0  0  0  0  0  0  0  0  0  0
   -1.1805   -2.4006    0.2436 H   0  0  0  0  0  0  0  0  0  0  0  0
   -2.4320   -2.5353   -0.9683 H   0  0  0  0  0  0  0  0  0  0  0  0
   -2.5118   -3.5071    0.4817 H   0  0  0  0  0  0  0  0  0  0  0  0
    7.0480   -2.5470   -1.1747 H   0  0  0  0  0  0  0  0  0  0  0  0
    7.9712   -1.7514    1.1213 H   0  0  0  0  0  0  0  0  0  0  0  0
    6.2023   -2.1615    2.8890 H   0  0  0  0  0  0  0  0  0  0  0  0
    2.7001   -1.3102    2.1695 H   0  0  0  0  0  0  0  0  0  0  0  0
    4.4457   -3.2756    3.6353 H   0  0  0  0  0  0  0  0  0  0  0  0
    2.7463   -3.0053    3.9387 H   0  0  0  0  0  0  0  0  0  0  0  0
    3.2647   -3.6824    2.4136 H   0  0  0  0  0  0  0  0  0  0  0  0
    4.0695    0.3718    3.3101 H   0  0  0  0  0  0  0  0  0  0  0  0
    3.2186   -0.6260    4.4648 H   0  0  0  0  0  0  0  0  0  0  0  0
    4.9180   -0.8963    4.1615 H   0  0  0  0  0  0  0  0  0  0  0  0
    3.9215   -0.6323   -2.2008 H   0  0  0  0  0  0  0  0  0  0  0  0
    6.8907   -0.4824   -2.6697 H   0  0  0  0  0  0  0  0  0  0  0  0
    5.6643    0.2113   -3.7029 H   0  0  0  0  0  0  0  0  0  0  0  0
    5.8894    0.8233   -2.0818 H   0  0  0  0  0  0  0  0  0  0  0  0
    4.2209   -3.0169   -2.6799 H   0  0  0  0  0  0  0  0  0  0  0  0
    4.6851   -2.0423   -4.0539 H   0  0  0  0  0  0  0  0  0  0  0  0
    5.9115   -2.7361   -3.0207 H   0  0  0  0  0  0  0  0  0  0  0  0
    2.9391   -8.8765   -4.3279 H   0  0  0  0  0  0  0  0  0  0  0  0
    5.1472   -9.2063   -5.1512 H   0  0  0  0  0  0  0  0  0  0  0  0
    7.0043   -7.5315   -4.6876 H   0  0  0  0  0  0  0  0  0  0  0  0
    7.7131   -5.2696   -3.5507 H   0  0  0  0  0  0  0  0  0  0  0  0
    6.9405   -3.4458   -2.2489 H   0  0  0  0  0  0  0  0  0  0  0  0
    4.5868   -3.2363   -1.4465 H   0  0  0  0  0  0  0  0  0  0  0  0
    3.7580   -2.7395   -2.2204 H   0  0  0  0  0  0  0  0  0  0  0  0
    4.6825   -1.3994   -1.5858 H   0  0  0  0  0  0  0  0  0  0  0  0
    3.6306   -2.3125   -0.5309 H   0  0  0  0  0  0  0  0  0  0  0  0
    3.4857   -1.2156   -3.6223 H   0  0  0  0  0  0  0  0  0  0  0  0
    3.2700    0.4141   -3.0210 H   0  0  0  0  0  0  0  0  0  0  0  0
    1.6325   -0.5823   -4.8030 H   0  0  0  0  0  0  0  0  0  0  0  0
    1.0777    0.4536   -3.5557 H   0  0  0  0  0  0  0  0  0  0  0  0
   -0.7450   -0.4253   -2.3732 H   0  0  0  0  0  0  0  0  0  0  0  0
   -1.0495   -1.0689   -3.9688 H   0  0  0  0  0  0  0  0  0  0  0  0
   -1.1945   -2.1026   -2.5675 H   0  0  0  0  0  0  0  0  0  0  0  0
  1  2  1  0  0  0  0
  1 55  1  0  0  0  0
  1 56  1  0  0  0  0
  1 57  1  0  0  0  0
  2  3  1  0  0  0  0
  2  7  1  0  0  0  0
  3  4  1  0  0  0  0
  3 58  1  0  0  0  0
  3 59  1  0  0  0  0
  4  5  1  0  0  0  0
  4 60  1  0  0  0  0
  4 61  1  0  0  0  0
  5  6  1  0  0  0  0
  5  7  1  0  0  0  0
  6 62  1  0  0  0  0
  6 63  1  0  0  0  0
  6 64  1  0  0  0  0
  7  8  1  0  0  0  0
  7 11  1  0  0  0  0
  7 26  1  0  0  0  0
  7 49  1  0  0  0  0
  7 53  1  0  0  0  0
  8  9  2  0  0  0  0
  9 10  2  0  0  0  0
 11 12  1  0  0  0  0
 11 24  1  0  0  0  0
 12 13  1  0  0  0  0
 12 17  2  0  0  0  0
 13 14  2  0  0  0  0
 13 21  1  0  0  0  0
 14 15  1  0  0  0  0
 14 65  1  0  0  0  0
 15 16  2  0  0  0  0
 15 66  1  0  0  0  0
 16 17  1  0  0  0  0
 16 67  1  0  0  0  0
 17 18  1  0  0  0  0
 18 19  1  0  0  0  0
 18 20  1  0  0  0  0
 18 68  1  0  0  0  0
 19 69  1  0  0  0  0
 19 70  1  0  0  0  0
 19 71  1  0  0  0  0
 20 72  1  0  0  0  0
 20 73  1  0  0  0  0
 20 74  1  0  0  0  0
 21 22  1  0  0  0  0
 21 23  1  0  0  0  0
 21 75  1  0  0  0  0
 22 76  1  0  0  0  0
 22 77  1  0  0  0  0
 22 78  1  0  0  0  0
 23 79  1  0  0  0  0
 23 80  1  0  0  0  0
 23 81  1  0  0  0  0
 24 25  2  0  0  0  0
 24 47  1  0  0  0  0
 25 26  1  0  0  0  0
 25 39  1  0  0  0  0
 26 27  1  0  0  0  0
 27 28  1  0  0  0  0
 27 32  2  0  0  0  0
 28 29  2  0  0  0  0
 28 36  1  0  0  0  0
 29 30  1  0  0  0  0
 29 82  1  0  0  0  0
 30 31  2  0  0  0  0
 30 83  1  0  0  0  0
 31 32  1  0  0  0  0
 31 84  1  0  0  0  0
 32 33  1  0  0  0  0
 33 34  1  0  0  0  0
 33 35  1  0  0  0  0
 33 85  1  0  0  0  0
 34 86  1  0  0  0  0
 34 87  1  0  0  0  0
 34 88  1  0  0  0  0
 35 89  1  0  0  0  0
 35 90  1  0  0  0  0
 35 91  1  0  0  0  0
 36 37  1  0  0  0  0
 36 38  1  0  0  0  0
 36 92  1  0  0  0  0
 37 93  1  0  0  0  0
 37 94  1  0  0  0  0
 37 95  1  0  0  0  0
 38 96  1  0  0  0  0
 38 97  1  0  0  0  0
 38 98  1  0  0  0  0
 39 40  1  0  0  0  0
 39 48  2  0  0  0  0
 40 41  2  0  0  0  0
 40 99  1  0  0  0  0
 41 42  1  0  0  0  0
 41100  1  0  0  0  0
 42 43  2  0  0  0  0
 42101  1  0  0  0  0
 43 44  1  0  0  0  0
 43 48  1  0  0  0  0
 44 45  2  0  0  0  0
 44102  1  0  0  0  0
 45 46  1  0  0  0  0
 45103  1  0  0  0  0
 46 47  2  0  0  0  0
 46104  1  0  0  0  0
 47 48  1  0  0  0  0
 49 50  1  0  0  0  0
 49 51  1  0  0  0  0
 50105  1  0  0  0  0
 50106  1  0  0  0  0
 50107  1  0  0  0  0
 51 52  1  0  0  0  0
 51108  1  0  0  0  0
 51109  1  0  0  0  0
 52 53  1  0  0  0  0
 52110  1  0  0  0  0
 52111  1  0  0  0  0
 53 54  1  0  0  0  0
 54112  1  0  0  0  0
 54113  1  0  0  0  0
 54114  1  0  0  0  0
M  END
$$$$
