
 OpenBabel09252514163D

 26 26  0  0  0  0  0  0  0  0999 V2000
    3.1619    0.1140    0.8458 H   0  0  0  0  0  0  0  0  0  0  0  0
    2.8972   -0.1847   -0.1627 C   0  0  0  0  0  3  0  0  0  0  0  0
    2.2184   -1.4601   -0.3699 C   0  0  0  0  0  3  0  0  0  0  0  0
    2.0452   -2.1092    0.4817 H   0  0  0  0  0  0  0  0  0  0  0  0
    1.9632   -1.9357   -1.7328 C   0  0  0  0  0  3  0  0  0  0  0  0
    1.7063   -3.3554   -1.9760 N   0  0  0  0  0  0  0  0  0  0  0  0
    1.6990   -4.1130   -0.9959 O   0  0  0  0  0  0  0  0  0  0  0  0
    1.5223   -3.7132   -3.1473 O   0  0  0  0  0  0  0  0  0  0  0  0
    2.1926   -1.0306   -2.8622 C   0  0  0  0  0  3  0  0  0  0  0  0
    2.0187   -1.3638   -3.8798 H   0  0  0  0  0  0  0  0  0  0  0  0
    2.8929    0.2308   -2.6460 C   0  0  0  0  0  3  0  0  0  0  0  0
    3.2284    0.8042   -3.5049 H   0  0  0  0  0  0  0  0  0  0  0  0
    3.4310    0.5538   -1.3167 C   0  0  0  0  0  3  0  0  0  0  0  0
    4.7332    1.2721   -1.2310 C   0  0  0  0  0  0  0  0  0  0  0  0
    5.4770    1.4219   -2.1919 O   0  0  0  0  0  0  0  0  0  0  0  0
    4.9954    1.6332    0.0478 O   0  0  0  0  0  0  0  0  0  0  0  0
    6.3643    1.9678    0.3451 C   0  0  0  0  0  0  0  0  0  0  0  0
    7.0205    1.1936   -0.0723 H   0  0  0  0  0  0  0  0  0  0  0  0
    6.7508    3.3398   -0.1957 C   0  0  0  0  0  0  0  0  0  0  0  0
    6.0582    4.1113    0.1551 H   0  0  0  0  0  0  0  0  0  0  0  0
    7.7666    3.6075    0.1129 H   0  0  0  0  0  0  0  0  0  0  0  0
    6.7208    3.3627   -1.2889 H   0  0  0  0  0  0  0  0  0  0  0  0
    6.4943    1.9420    1.8646 C   0  0  0  0  0  0  0  0  0  0  0  0
    5.8609    2.7094    2.3240 H   0  0  0  0  0  0  0  0  0  0  0  0
    6.1577    0.9785    2.2631 H   0  0  0  0  0  0  0  0  0  0  0  0
    7.5290    2.1085    2.1785 H   0  0  0  0  0  0  0  0  0  0  0  0
  1  2  1  0  0  0  0
  2  3  1  0  0  0  0
  2 13  1  0  0  0  0
  3  4  1  0  0  0  0
  3  5  1  0  0  0  0
  5  6  1  0  0  0  0
  5  9  1  0  0  0  0
  6  7  2  0  0  0  0
  6  8  2  0  0  0  0
  9 10  1  0  0  0  0
  9 11  1  0  0  0  0
 11 12  1  0  0  0  0
 11 13  1  0  0  0  0
 13 14  1  0  0  0  0
 14 15  2  0  0  0  0
 14 16  1  0  0  0  0
 16 17  1  0  0  0  0
 17 18  1  0  0  0  0
 17 19  1  0  0  0  0
 17 23  1  0  0  0  0
 19 20  1  0  0  0  0
 19 21  1  0  0  0  0
 19 22  1  0  0  0  0
 23 24  1  0  0  0  0
 23 25  1  0  0  0  0
 23 26  1  0  0  0  0
M  END
$$$$
