
  --CCDC--092525    3D                              

109117  0  0  0  0  0  0  0  0999 V2000
   -0.0609    0.1864   -0.0851 C      0
    1.2769    0.3711   -0.6392 C      0
    2.3597    0.4265   -0.9868 N      0
    4.4621    0.2418   -1.6120 Fe     2
    4.2809    2.4167   -1.9052 N      0
    4.2083    3.5450   -2.0677 C      0
    4.1666    4.9625   -2.3978 C      0
    5.5278    0.3886    0.2459 N      0
    6.6341    1.1146    0.1638 C      0
    7.6791    0.6889   -0.8333 C      0
    6.9106    0.0268   -2.3402 P      0
    7.3871    1.0258   -3.7712 C      0
    6.7087    2.1966   -4.0482 C      0
    7.1747    3.1197   -4.9544 C      0
    8.3627    2.8951   -5.6192 C      0
    8.9233    3.9806   -6.4970 C      0
    9.0019    1.6759   -5.4256 C      0
    8.5257    0.7470   -4.5139 C      0
    7.5975   -1.6478   -2.5389 C      0
    7.6514   -2.2641   -3.7784 C      0
    7.9314   -3.6119   -3.9125 C      0
    8.1807   -4.4049   -2.8086 C      0
    8.3962   -5.8871   -2.9628 C      0
    8.2565   -3.7718   -1.5810 C      0
    8.0538   -2.4086   -1.4685 C      0
    4.7398   -0.4416    1.1217 C      0
    4.5669   -1.8885    0.4961 C      0
    4.3316   -1.8175   -0.9409 N      0
    3.9983   -2.7108   -1.8707 C      0
    3.7022   -2.3842   -3.3347 C      0
    3.6497   -0.6326   -3.8548 P      0
    4.6575   -0.3246   -5.3428 C      0
    5.5121   -1.2999   -5.8417 C      0
    6.3804   -1.0494   -6.8941 C      0
    6.4009    0.1787   -7.5378 C      0
    7.3460    0.4876   -8.6775 C      0
    5.4985    1.1266   -7.0958 C      0
    4.6824    0.8994   -6.0061 C      0
    1.9531   -0.0528   -4.1378 C      0
    1.7148    1.2084   -4.6730 C      0
    0.4570    1.5808   -5.0918 C      0
   -0.6399    0.7792   -4.8489 C      0
   -1.9963    1.2056   -5.3499 C      0
   -0.4386   -0.3864   -4.1210 C      0
    0.8379   -0.7944   -3.7567 C      0
    5.6450   -2.8539    1.0067 C      0
    6.9461   -2.4599    1.3154 C      0
    7.9300   -3.4006    1.5999 C      0
    7.6544   -4.7509    1.5883 C      0
    6.3669   -5.1572    1.3349 C      0
    5.3887   -4.2187    1.0579 C      0
    5.1513   -0.4631    2.5914 C      0
    6.3300    0.1724    2.9528 C      0
    6.6022    0.4654    4.2792 C      0
    5.7396    0.0555    5.2746 C      0
    4.6531   -0.7256    4.9492 C      0
    4.3811   -1.0052    3.6195 C      0
   -0.7195    1.0073   -0.3706 H      0
   -0.0233    0.1272    1.0013 H      0
   -0.4987   -0.7420   -0.4490 H      0
    3.1434    5.3221   -2.4866 H      0
    4.6738    5.1195   -3.3481 H      0
    4.6667    5.5601   -1.6409 H      0
    6.8043    1.9579    0.8234 H      0
    8.3271    1.5365   -1.0804 H      0
    8.3386   -0.0506   -0.3756 H      0
    5.7863    2.3850   -3.5417 H      0
    6.6056    4.0288   -5.1298 H      0
    8.1620    4.7311   -6.7023 H      0
    9.7565    4.4706   -5.9975 H      0
    9.2717    3.5753   -7.4427 H      0
    9.9066    1.4522   -5.9817 H      0
    9.0549   -0.1882   -4.3631 H      0
    7.5203   -1.6627   -4.6630 H      0
    7.9739   -4.0537   -4.9033 H      0
    8.6996   -6.1173   -3.9808 H      0
    7.4758   -6.4259   -2.7521 H      0
    9.1689   -6.2438   -2.2865 H      0
    8.4978   -4.3442   -0.6914 H      0
    8.2893   -1.9323   -0.5305 H      0
    3.7283    0.0010    1.1033 H      0
    3.6251   -2.2732    0.9235 H      0
    3.9623   -3.7449   -1.5510 H      0
    4.4176   -2.9228   -3.9637 H      0
    2.7466   -2.8467   -3.5935 H      0
    5.5577   -2.2666   -5.3572 H      0
    7.0696   -1.8311   -7.2017 H      0
    7.7249   -0.4271   -9.1330 H      0
    8.1989    1.0773   -8.3386 H      0
    6.8279    1.0621   -9.4440 H      0
    5.4395    2.0798   -7.6095 H      0
    4.0919    1.7290   -5.6639 H      0
    2.5075    1.9340   -4.7556 H      0
    0.3297    2.5217   -5.6173 H      0
   -2.2721    0.6535   -6.2465 H      0
   -1.9849    2.2648   -5.5991 H      0
   -2.7589    1.0400   -4.5927 H      0
   -1.2906   -0.9980   -3.8370 H      0
    0.9730   -1.7019   -3.1778 H      0
    7.2032   -1.4072    1.3354 H      0
    8.9342   -3.0804    1.8492 H      0
    8.4292   -5.4849    1.8053 H      0
    6.1190   -6.2141    1.3681 H      0
    4.3785   -4.5698    0.8857 H      0
    7.0237    0.4840    2.1792 H      0
    7.4917    1.0301    4.5349 H      0
    5.9082    0.3356    6.3084 H      0
    4.0042   -1.1275    5.7255 H      0
    3.5356   -1.6427    3.3974 H      0
  1  2  1
  2  3  3
  3  4  1
  4  5  1
  5  6  3
  6  7  1
  4  8  1
  8  9  2
  9 10  1
 10 11  1
  4 11  1
 11 12  1
 12 13  4
 13 14  4
 14 15  4
 15 16  1
 15 17  4
 17 18  4
 12 18  4
 11 19  1
 19 20  4
 20 21  4
 21 22  4
 22 23  1
 22 24  4
 24 25  4
 19 25  4
  8 26  1
 26 27  1
 27 28  1
  4 28  1
 28 29  2
 29 30  1
 30 31  1
  4 31  1
 31 32  1
 32 33  4
 33 34  4
 34 35  4
 35 36  1
 35 37  4
 37 38  4
 32 38  4
 31 39  1
 39 40  4
 40 41  4
 41 42  4
 42 43  1
 42 44  4
 44 45  4
 39 45  4
 27 46  1
 46 47  4
 47 48  4
 48 49  4
 49 50  4
 50 51  4
 46 51  4
 26 52  1
 52 53  4
 53 54  4
 54 55  4
 55 56  4
 56 57  4
 52 57  4
  1 58  1
  1 59  1
  1 60  1
  7 61  1
  7 62  1
  7 63  1
  9 64  1
 10 65  1
 10 66  1
 13 67  1
 14 68  1
 16 69  1
 16 70  1
 16 71  1
 17 72  1
 18 73  1
 20 74  1
 21 75  1
 23 76  1
 23 77  1
 23 78  1
 24 79  1
 25 80  1
 26 81  1
 27 82  1
 29 83  1
 30 84  1
 30 85  1
 33 86  1
 34 87  1
 36 88  1
 36 89  1
 36 90  1
 37 91  1
 38 92  1
 40 93  1
 41 94  1
 43 95  1
 43 96  1
 43 97  1
 44 98  1
 45 99  1
 47100  1
 48101  1
 49102  1
 50103  1
 51104  1
 53105  1
 54106  1
 55107  1
 56108  1
 57109  1
M  CHG  1   4   2
M  END
$$$$
