
 OpenBabel09252518193D

 43 45  0  0  1  0  0  0  0  0999 V2000
    1.0552    0.0797    0.0243 H   0  0  0  0  0  0  0  0  0  0  0  0
    2.1252    0.0797    0.0243 C   0  0  0  0  0  3  0  0  0  0  0  0
    2.6375   -1.3032   -0.3848 C   0  0  0  0  0  3  0  0  0  0  0  0
    2.2483   -2.0406    0.2858 H   0  0  0  0  0  0  0  0  0  0  0  0
    2.2072   -1.5953   -1.7160 C   0  0  0  0  0  3  0  0  0  0  0  0
    2.5475   -2.5771   -1.9714 H   0  0  0  0  0  0  0  0  0  0  0  0
    2.6947   -0.6813   -2.7001 C   0  0  0  0  0  3  0  0  0  0  0  0
    4.2146   -0.6848   -2.6863 C   0  0  1  0  0  0  0  0  0  0  0  0
    4.5632   -0.3873   -1.7195 H   0  0  0  0  0  0  0  0  0  0  0  0
    4.7209   -2.0835   -2.9991 C   0  0  0  0  0  0  0  0  0  0  0  0
    4.3723   -2.3811   -3.9660 H   0  0  0  0  0  0  0  0  0  0  0  0
    5.7908   -2.0860   -2.9894 H   0  0  0  0  0  0  0  0  0  0  0  0
    4.3560   -2.7680   -2.2621 H   0  0  0  0  0  0  0  0  0  0  0  0
    4.7160    0.2556   -3.6988 N   0  0  0  0  0  4  0  0  0  0  0  0
    4.3836   -0.0281   -4.6205 H   0  0  0  0  0  0  0  0  0  0  0  0
    4.3762    1.1942   -3.4889 H   0  0  0  0  0  0  0  0  0  0  0  0
    6.7859    0.2508   -3.6801 Pt  0  0  0  0  0  0  0  0  0  0  0  0
    6.8012    1.8822   -4.9541 N   0  0  0  0  0  0  0  0  0  0  0  0
    5.6667    2.4033   -5.3693 C   0  0  0  0  0  0  0  0  0  0  0  0
    4.5708    2.9067   -5.7703 O   0  0  0  0  0  0  0  0  0  0  0  0
    8.9058    0.2459   -3.6609 C   0  0  0  0  0  3  0  0  0  0  0  0
    9.4216   -1.0003   -4.3843 C   0  0  0  0  0  3  0  0  0  0  0  0
    9.0264   -1.8757   -3.9129 H   0  0  0  0  0  0  0  0  0  0  0  0
    9.0034   -0.9646   -5.7505 C   0  0  0  0  0  3  0  0  0  0  0  0
    9.3459   -1.8576   -6.2302 H   0  0  0  0  0  0  0  0  0  0  0  0
    9.4998    0.1570   -6.4831 C   0  0  0  0  0  3  0  0  0  0  0  0
   10.5696    0.1499   -6.4649 H   0  0  0  0  0  0  0  0  0  0  0  0
    8.9872    1.4500   -5.8445 C   0  0  0  0  0  3  0  0  0  0  0  0
    9.3919    2.2920   -6.3662 H   0  0  0  0  0  0  0  0  0  0  0  0
    9.4277    1.4952   -4.3781 C   0  0  0  0  0  3  0  0  0  0  0  0
   10.9455    1.5290   -4.3030 C   0  0  1  0  0  0  0  0  0  0  0  0
   11.3085    2.3983   -4.8104 H   0  0  0  0  0  0  0  0  0  0  0  0
   11.3799    1.5738   -2.8470 C   0  0  0  0  0  0  0  0  0  0  0  0
   10.9802    2.4509   -2.3824 H   0  0  0  0  0  0  0  0  0  0  0  0
   11.0169    0.7045   -2.3396 H   0  0  0  0  0  0  0  0  0  0  0  0
   12.4483    1.5976   -2.7942 H   0  0  0  0  0  0  0  0  0  0  0  0
    6.7706   -1.3806   -2.4061 N   0  0  0  0  0  4  0  0  0  0  0  0
    7.6038   -1.9463   -2.5679 H   0  0  0  0  0  0  0  0  0  0  0  0
    6.7621   -1.0567   -1.4389 H   0  0  0  0  0  0  0  0  0  0  0  0
    2.1847    0.7268   -2.3846 C   0  0  0  0  0  3  0  0  0  0  0  0
    2.5830    1.4197   -3.0961 H   0  0  0  0  0  0  0  0  0  0  0  0
    2.6381    1.1214   -0.9755 C   0  0  0  0  0  3  0  0  0  0  0  0
    3.7069    1.1572   -0.9396 H   0  0  0  0  0  0  0  0  0  0  0  0
  1  2  1  0  0  0  0
  2  3  1  0  0  0  0
  2 42  1  0  0  0  0
  3  4  1  0  0  0  0
  3  5  1  0  0  0  0
  5  6  1  0  0  0  0
  5  7  1  0  0  0  0
  7  8  1  0  0  0  0
  7 40  1  0  0  0  0
  8  9  1  1  0  0  0
  8 10  1  0  0  0  0
  8 14  1  0  0  0  0
 10 11  1  0  0  0  0
 10 12  1  0  0  0  0
 10 13  1  0  0  0  0
 14 15  1  0  0  0  0
 14 16  1  0  0  0  0
 14 17  1  0  0  0  0
 17 18  1  0  0  0  0
 17 21  1  0  0  0  0
 17 37  1  0  0  0  0
 18 19  2  0  0  0  0
 19 20  2  0  0  0  0
 21 22  1  0  0  0  0
 21 30  1  0  0  0  0
 22 23  1  0  0  0  0
 22 24  1  0  0  0  0
 24 25  1  0  0  0  0
 24 26  1  0  0  0  0
 26 27  1  0  0  0  0
 26 28  1  0  0  0  0
 28 29  1  0  0  0  0
 28 30  1  0  0  0  0
 30 31  1  0  0  0  0
 31 32  1  6  0  0  0
 31 33  1  0  0  0  0
 31 37  1  0  0  0  0
 33 34  1  0  0  0  0
 33 35  1  0  0  0  0
 33 36  1  0  0  0  0
 37 38  1  0  0  0  0
 37 39  1  0  0  0  0
 40 41  1  0  0  0  0
 40 42  1  0  0  0  0
 42 43  1  0  0  0  0
M  END
$$$$
