
  --CCDC--092525    3D                              

 44 49  0  0  0  0  0  0  0  0999 V2000
   -0.4670    0.2887    1.0466 C      0
    0.4895   -0.7318    0.4765 C      0
    0.8038   -1.5667    1.6269 C      0
    2.4725   -0.6215    1.0508 Ir     0
    2.8976    0.2691   -0.7069 C      0
    1.4958   -0.0511   -0.6432 C      0
    4.5089   -0.4013    1.5980 C      0
    5.5194   -1.0767    0.9036 C      0
    5.1149   -2.3961    0.2923 C      0
    3.6724   -2.7458    1.3148 P      0
    4.0948   -3.2228    3.0121 C      0
    4.6657   -4.4218    3.0049 F      0
    2.9963   -3.2976    3.7546 F      0
    4.9440   -2.3875    3.5965 F      0
    2.7501   -4.1030    0.5524 C      0
    2.4199   -3.7952   -0.6966 F      0
    1.6393   -4.3605    1.2330 F      0
    3.4894   -5.2060    0.5312 F      0
    6.8383   -0.6335    0.8728 C      0
    7.2317    0.4158    1.6814 C      0
    6.3259    0.8901    2.6107 C      0
    5.0259    0.3937    2.6260 C      0
    4.1531    0.5501    3.8399 C      0
    2.5765    0.8287    3.0398 P      0
    1.2984    0.4963    4.2794 C      0
    0.0834    0.8039    3.8456 F      0
    1.5313    1.2183    5.3695 F      0
    1.3126   -0.7865    4.6228 F      0
    2.5596    2.5733    2.5548 C      0
    1.4157    2.9179    1.9773 F      0
    3.5477    2.8211    1.7027 F      0
    2.7301    3.3441    3.6228 F      0
   -1.0910    0.7108    0.2617 H      0
    0.0740    1.1019    1.5179 H      0
   -1.1187   -0.1648    1.7905 H      0
    0.3432   -1.8679    2.5544 H      0
    3.6837    0.7021   -1.3167 H      0
    4.8509   -2.2843   -0.7666 H      0
    5.8893   -3.1686    0.3747 H      0
    7.5613   -1.1233    0.2288 H      0
    8.2382    0.8169    1.6266 H      0
    6.6384    1.6197    3.3504 H      0
    4.1439   -0.3643    4.4444 H      0
    4.4498    1.3826    4.4899 H      0
  1  2  1
  2  3  2
  3  4  1
  2  4  1
  4  5  1
  5  6  2
  2  6  1
  4  6  1
  4  7  1
  7  8  4
  8  9  1
  9 10  1
  4 10  1
 10 11  1
 11 12  1
 11 13  1
 11 14  1
 10 15  1
 15 16  1
 15 17  1
 15 18  1
  8 19  4
 19 20  4
 20 21  4
 21 22  4
  7 22  4
 22 23  1
 23 24  1
  4 24  1
 24 25  1
 25 26  1
 25 27  1
 25 28  1
 24 29  1
 29 30  1
 29 31  1
 29 32  1
  1 33  1
  1 34  1
  1 35  1
  3 36  1
  5 37  1
  9 38  1
  9 39  1
 19 40  1
 20 41  1
 21 42  1
 23 43  1
 23 44  1
M  END
$$$$
