
     RDKit          3D

  0  0  0  0  0  0  0  0  0  0999 V3000
M  V30 BEGIN CTAB
M  V30 COUNTS 114 121 0 0 0
M  V30 BEGIN ATOM
M  V30 1 C -1.121452 -4.129964 0.136563 0
M  V30 2 O -0.991370 -2.985966 -0.669292 0
M  V30 3 C -1.078987 -3.489202 -1.976058 0
M  V30 4 C 0.362419 -3.998727 -1.968001 0
M  V30 5 O 0.898186 -2.820585 -1.349403 0
M  V30 6 C 2.180689 -2.858117 -1.650923 0
M  V30 7 Eu 0.062316 -1.499711 -0.105110 0 VAL=7
M  V30 8 N -0.067099 -0.755300 -1.908018 0
M  V30 9 C -0.012601 -0.801345 -3.068302 0
M  V30 10 S -0.617892 -0.436952 -4.435835 0
M  V30 11 N -1.389859 -0.014819 -0.019523 0
M  V30 12 C -2.882100 0.100589 -0.062196 0
M  V30 13 C -3.376793 0.510098 1.220142 0
M  V30 14 C -4.753429 0.805213 1.266153 0
M  V30 15 C -5.626017 0.728096 0.190245 0
M  V30 16 C -5.102548 0.329863 -0.992348 0
M  V30 17 C -3.788388 0.055544 -1.012762 0
M  V30 18 C -3.335652 -0.360977 -2.349365 0
M  V30 19 C -3.601065 0.789650 -3.337443 0
M  V30 20 C -4.360704 -1.384254 -2.964706 0
M  V30 21 C -2.881958 0.706096 2.597436 0
M  V30 22 C -3.541300 1.941986 3.297366 0
M  V30 23 C -3.670688 -0.390470 3.387583 0
M  V30 24 C -0.702166 1.278802 0.234848 0
M  V30 25 C 0.593131 1.364362 0.222960 0
M  V30 26 N 1.340687 0.138591 -0.079482 0
M  V30 27 C 2.833831 0.304940 -0.419596 0
M  V30 28 C 3.847877 -0.074206 0.343939 0
M  V30 29 C 5.113145 -0.137126 -0.281303 0
M  V30 30 C 5.404830 0.167716 -1.615734 0
M  V30 31 C 4.303131 0.568601 -2.330751 0
M  V30 32 C 3.015618 0.661657 -1.797066 0
M  V30 33 C 2.204743 1.432052 -2.769131 0
M  V30 34 C 2.555245 0.997866 -4.176761 0
M  V30 35 C 2.761276 2.920567 -2.739961 0
M  V30 36 C 3.987514 -0.123178 1.764352 0
M  V30 37 C 5.008548 -1.143304 2.193403 0
M  V30 38 C 3.164686 0.308731 2.841051 0
M  V30 39 C 1.029790 2.731925 0.464837 0
M  V30 40 C 2.226791 3.397211 0.547571 0
M  V30 41 C 2.286389 4.745311 0.772270 0
M  V30 42 C 1.155810 5.509673 0.926555 0
M  V30 43 C -0.058824 4.873229 0.847841 0
M  V30 44 C -1.285194 5.509999 0.941701 0
M  V30 45 C -2.409996 4.725821 0.797241 0
M  V30 46 C -2.267254 3.403277 0.584692 0
M  V30 47 C -1.117396 2.693710 0.489243 0
M  V30 48 C -0.061580 3.541152 0.626367 0
M  V30 49 O -0.681863 -1.627732 1.703949 0
M  V30 50 C -1.485414 -2.622677 2.228976 0
M  V30 51 C 0.090936 -1.125483 2.810979 0
M  V30 52 C 0.953605 -2.283939 2.733180 0
M  V30 53 O 1.293907 -2.143055 1.297535 0
M  V30 54 C 2.167182 -3.112969 1.293613 0
M  V30 55 H -2.138204 -4.480740 0.210089 0
M  V30 56 H -0.337339 -4.267096 0.837817 0
M  V30 57 H -0.757352 -5.018821 -0.599096 0
M  V30 58 H -1.253198 -2.795086 -2.763014 0
M  V30 59 H -1.826256 -4.266622 -1.923228 0
M  V30 60 H 0.627629 -4.909566 -1.517128 0
M  V30 61 H 0.737341 -3.874217 -3.023921 0
M  V30 62 H 2.242789 -2.833737 -2.813717 0
M  V30 63 H 2.903608 -2.110677 -1.399863 0
M  V30 64 H 2.585177 -3.871893 -1.474526 0
M  V30 65 H -5.338494 1.108159 2.161610 0
M  V30 66 H -6.683367 0.946864 0.261586 0
M  V30 67 H -5.789823 0.264342 -1.824864 0
M  V30 68 H -2.483016 -0.911359 -2.314252 0
M  V30 69 H -2.686399 1.466226 -3.172019 0
M  V30 70 H -3.640701 0.490036 -4.378272 0
M  V30 71 H -4.448097 1.394533 -2.978139 0
M  V30 72 H -4.525349 -2.256261 -2.326796 0
M  V30 73 H -3.776052 -1.776138 -3.878779 0
M  V30 74 H -5.246418 -0.859579 -3.351757 0
M  V30 75 H -1.886790 0.605553 2.855586 0
M  V30 76 H -4.127409 2.450090 2.520869 0
M  V30 77 H -2.653654 2.581155 3.612374 0
M  V30 78 H -4.173657 1.637012 4.125438 0
M  V30 79 H -4.635546 0.026055 3.767442 0
M  V30 80 H -3.957465 -1.214148 2.726300 0
M  V30 81 H -3.118022 -0.688529 4.291605 0
M  V30 82 H 6.002188 -0.455728 0.271256 0
M  V30 83 H 6.417289 0.074862 -1.990215 0
M  V30 84 H 4.635317 0.790716 -3.363132 0
M  V30 85 H 1.157375 1.498299 -2.631377 0
M  V30 86 H 3.388125 1.536128 -4.615717 0
M  V30 87 H 1.683661 1.220903 -4.875758 0
M  V30 88 H 2.741167 -0.112365 -4.220899 0
M  V30 89 H 1.959152 3.503103 -2.297553 0
M  V30 90 H 3.666130 2.954779 -2.125142 0
M  V30 91 H 2.869520 3.255605 -3.785156 0
M  V30 92 H 4.819007 0.843405 1.862168 0
M  V30 93 H 6.050682 -0.825760 2.172539 0
M  V30 94 H 4.888323 -2.133441 1.638800 0
M  V30 95 H 4.830496 -1.441899 3.280877 0
M  V30 96 H 2.312685 0.982928 2.617347 0
M  V30 97 H 3.754080 1.012410 3.577942 0
M  V30 98 H 2.815834 -0.403919 3.598721 0
M  V30 99 H 3.110968 2.739484 0.411280 0
M  V30 100 H 3.275510 5.172535 0.815869 0
M  V30 101 H 1.161738 6.573345 1.103813 0
M  V30 102 H -1.314888 6.577112 1.112864 0
M  V30 103 H -3.400686 5.162771 0.857489 0
M  V30 104 H -3.181223 2.882241 0.412030 0
M  V30 105 H -1.910605 -2.135897 3.141707 0
M  V30 106 H -1.143052 -3.568341 2.528190 0
M  V30 107 H -2.452619 -2.693421 1.589718 0
M  V30 108 H -0.650068 -1.111770 3.629124 0
M  V30 109 H 0.390520 -0.119912 2.610821 0
M  V30 110 H 1.903002 -2.232669 3.255280 0
M  V30 111 H 0.485187 -3.232270 2.762835 0
M  V30 112 H 2.842634 -2.895589 2.212706 0
M  V30 113 H 1.774618 -4.097067 1.589916 0
M  V30 114 H 2.931308 -3.078405 0.536793 0
M  V30 END ATOM
M  V30 BEGIN BOND
M  V30 1 1 1 2
M  V30 2 1 2 3
M  V30 3 1 3 4
M  V30 4 1 4 5
M  V30 5 1 5 6
M  V30 6 9 5 7
M  V30 7 1 7 8
M  V30 8 2 8 9
M  V30 9 2 9 10
M  V30 10 1 7 11
M  V30 11 1 11 12
M  V30 12 2 12 13
M  V30 13 1 13 14
M  V30 14 2 14 15
M  V30 15 1 15 16
M  V30 16 2 16 17
M  V30 17 1 17 18
M  V30 18 1 18 19
M  V30 19 1 18 20
M  V30 20 1 13 21
M  V30 21 1 21 22
M  V30 22 1 21 23
M  V30 23 1 11 24
M  V30 24 2 24 25
M  V30 25 1 25 26
M  V30 26 1 26 27
M  V30 27 2 27 28
M  V30 28 1 28 29
M  V30 29 2 29 30
M  V30 30 1 30 31
M  V30 31 2 31 32
M  V30 32 1 32 33
M  V30 33 1 33 34
M  V30 34 1 33 35
M  V30 35 1 28 36
M  V30 36 1 36 37
M  V30 37 1 36 38
M  V30 38 1 25 39
M  V30 39 2 39 40
M  V30 40 1 40 41
M  V30 41 2 41 42
M  V30 42 1 42 43
M  V30 43 2 43 44
M  V30 44 1 44 45
M  V30 45 2 45 46
M  V30 46 1 46 47
M  V30 47 2 47 48
M  V30 48 9 49 7
M  V30 49 1 49 50
M  V30 50 1 49 51
M  V30 51 1 51 52
M  V30 52 1 52 53
M  V30 53 1 53 54
M  V30 54 9 2 7
M  V30 55 1 17 12
M  V30 56 1 47 24
M  V30 57 1 26 7
M  V30 58 1 32 27
M  V30 59 1 48 39
M  V30 60 9 53 7
M  V30 61 1 48 43
M  V30 62 1 1 55
M  V30 63 1 1 56
M  V30 64 1 1 57
M  V30 65 1 3 58
M  V30 66 1 3 59
M  V30 67 1 4 60
M  V30 68 1 4 61
M  V30 69 1 6 62
M  V30 70 1 6 63
M  V30 71 1 6 64
M  V30 72 1 14 65
M  V30 73 1 15 66
M  V30 74 1 16 67
M  V30 75 1 18 68
M  V30 76 1 19 69
M  V30 77 1 19 70
M  V30 78 1 19 71
M  V30 79 1 20 72
M  V30 80 1 20 73
M  V30 81 1 20 74
M  V30 82 1 21 75
M  V30 83 1 22 76
M  V30 84 1 22 77
M  V30 85 1 22 78
M  V30 86 1 23 79
M  V30 87 1 23 80
M  V30 88 1 23 81
M  V30 89 1 29 82
M  V30 90 1 30 83
M  V30 91 1 31 84
M  V30 92 1 33 85
M  V30 93 1 34 86
M  V30 94 1 34 87
M  V30 95 1 34 88
M  V30 96 1 35 89
M  V30 97 1 35 90
M  V30 98 1 35 91
M  V30 99 1 36 92
M  V30 100 1 37 93
M  V30 101 1 37 94
M  V30 102 1 37 95
M  V30 103 1 38 96
M  V30 104 1 38 97
M  V30 105 1 38 98
M  V30 106 1 40 99
M  V30 107 1 41 100
M  V30 108 1 42 101
M  V30 109 1 44 102
M  V30 110 1 45 103
M  V30 111 1 46 104
M  V30 112 1 50 105
M  V30 113 1 50 106
M  V30 114 1 50 107
M  V30 115 1 51 108
M  V30 116 1 51 109
M  V30 117 1 52 110
M  V30 118 1 52 111
M  V30 119 1 54 112
M  V30 120 1 54 113
M  V30 121 1 54 114
M  V30 END BOND
M  V30 END CTAB
M  END
