
 OpenBabel09252513163D

 62 63  0  0  0  0  0  0  0  0999 V2000
    0.9268    0.0605    0.0314 C   0  0  0  0  0  0  0  0  0  0  0  0
    0.2201    1.9393   -0.6507 Pt  0  0  0  0  0  0  0  0  0  0  0  0
    1.9511    2.1528   -1.8559 C   0  0  0  0  0  0  0  0  0  0  0  0
   -0.7793    0.9806   -2.2559 C   0  0  0  0  0  0  0  0  0  0  0  0
   -0.4699    3.7737   -1.3167 N   0  0  0  0  0  0  0  0  0  0  0  0
   -1.9913    4.1811   -2.0346 N   0  0  0  0  0  0  0  0  0  0  0  0
   -1.7336    5.9193   -2.2744 C   0  0  0  0  0  0  0  0  0  0  0  0
   -2.7370    6.8931   -2.8267 C   0  0  0  0  0  0  0  0  0  0  0  0
   -3.3366    7.6552   -1.6307 C   0  0  0  0  0  0  0  0  0  0  0  0
   -2.1839    8.2585   -0.8205 C   0  0  0  0  0  0  0  0  0  0  0  0
   -1.4864    9.2206   -1.7590 C   0  0  0  0  0  0  0  0  0  0  0  0
   -0.4853    8.5576   -2.6870 C   0  0  0  0  0  0  0  0  0  0  0  0
    0.3092    7.4640   -1.9857 C   0  0  0  0  0  0  0  0  0  0  0  0
   -0.4763    6.1599   -1.8597 C   0  0  0  0  0  0  0  0  0  0  0  0
    0.1995    4.9831   -1.3005 N   0  0  0  0  0  0  0  0  0  0  0  0
   -1.7640    1.6945    0.7308 P   0  0  0  0  0  4  0  0  0  0  0  0
   -1.3573    0.6990    2.2114 C   0  0  0  0  0  0  0  0  0  0  0  0
   -2.3534    3.3473    1.2500 C   0  0  0  0  0  0  0  0  0  0  0  0
   -3.0754    0.8529   -0.2288 C   0  0  0  0  0  0  0  0  0  0  0  0
    1.3656    3.0381    1.1892 P   0  0  0  0  0  4  0  0  0  0  0  0
    0.7208    2.3989    2.7781 C   0  0  0  0  0  0  0  0  0  0  0  0
    3.1608    2.6999    1.0792 C   0  0  0  0  0  0  0  0  0  0  0  0
    1.0781    4.8429    1.0960 C   0  0  0  0  0  0  0  0  0  0  0  0
    0.5701   -0.7118   -0.6177 H   0  0  0  0  0  0  0  0  0  0  0  0
    0.5701   -0.1155    1.0247 H   0  0  0  0  0  0  0  0  0  0  0  0
    1.9968    0.0605    0.0314 H   0  0  0  0  0  0  0  0  0  0  0  0
    2.2958    1.1864   -2.1595 H   0  0  0  0  0  0  0  0  0  0  0  0
    1.7133    2.7349   -2.7217 H   0  0  0  0  0  0  0  0  0  0  0  0
    2.7179    2.6449   -1.2948 H   0  0  0  0  0  0  0  0  0  0  0  0
   -1.8289    1.1783   -2.1916 H   0  0  0  0  0  0  0  0  0  0  0  0
   -0.4022    1.3543   -3.1849 H   0  0  0  0  0  0  0  0  0  0  0  0
   -0.6111   -0.0747   -2.2014 H   0  0  0  0  0  0  0  0  0  0  0  0
   -2.2724    7.5690   -3.5138 H   0  0  0  0  0  0  0  0  0  0  0  0
   -3.5080    6.3678   -3.3506 H   0  0  0  0  0  0  0  0  0  0  0  0
   -3.9101    6.9906   -1.0190 H   0  0  0  0  0  0  0  0  0  0  0  0
   -3.9785    8.4353   -1.9833 H   0  0  0  0  0  0  0  0  0  0  0  0
   -1.5167    7.5041   -0.4590 H   0  0  0  0  0  0  0  0  0  0  0  0
   -2.5610    8.7786    0.0352 H   0  0  0  0  0  0  0  0  0  0  0  0
   -2.2436    9.6544   -2.3780 H   0  0  0  0  0  0  0  0  0  0  0  0
   -0.9690    9.9494   -1.1707 H   0  0  0  0  0  0  0  0  0  0  0  0
   -1.0294    8.1059   -3.4900 H   0  0  0  0  0  0  0  0  0  0  0  0
    0.1948    9.3004   -3.0482 H   0  0  0  0  0  0  0  0  0  0  0  0
    1.1789    7.2642   -2.5762 H   0  0  0  0  0  0  0  0  0  0  0  0
    0.5694    7.8040   -1.0050 H   0  0  0  0  0  0  0  0  0  0  0  0
   -0.5905    1.1911    2.7725 H   0  0  0  0  0  0  0  0  0  0  0  0
   -2.2309    0.5912    2.8197 H   0  0  0  0  0  0  0  0  0  0  0  0
   -1.0126   -0.2674    1.9078 H   0  0  0  0  0  0  0  0  0  0  0  0
   -2.5912    3.9294    0.3842 H   0  0  0  0  0  0  0  0  0  0  0  0
   -3.2271    3.2395    1.8583 H   0  0  0  0  0  0  0  0  0  0  0  0
   -1.5866    3.8394    1.8111 H   0  0  0  0  0  0  0  0  0  0  0  0
   -3.3131    1.4349   -1.0946 H   0  0  0  0  0  0  0  0  0  0  0  0
   -2.7307   -0.1135   -0.5324 H   0  0  0  0  0  0  0  0  0  0  0  0
   -3.9490    0.7451    0.3795 H   0  0  0  0  0  0  0  0  0  0  0  0
    0.8889    1.3436    2.8326 H   0  0  0  0  0  0  0  0  0  0  0  0
    1.2252    2.8827    3.5882 H   0  0  0  0  0  0  0  0  0  0  0  0
   -0.3288    2.5966    2.8424 H   0  0  0  0  0  0  0  0  0  0  0  0
    3.5378    3.0736    0.1502 H   0  0  0  0  0  0  0  0  0  0  0  0
    3.6652    3.1838    1.8894 H   0  0  0  0  0  0  0  0  0  0  0  0
    3.3289    1.6446    1.1337 H   0  0  0  0  0  0  0  0  0  0  0  0
    1.4551    5.2167    0.1670 H   0  0  0  0  0  0  0  0  0  0  0  0
    0.0285    5.0407    1.1603 H   0  0  0  0  0  0  0  0  0  0  0  0
    1.5825    5.3268    1.9062 H   0  0  0  0  0  0  0  0  0  0  0  0
  1  2  1  0  0  0  0
  1 24  1  0  0  0  0
  1 25  1  0  0  0  0
  1 26  1  0  0  0  0
  2  3  1  0  0  0  0
  2  4  1  0  0  0  0
  2  5  1  0  0  0  0
  2 16  1  0  0  0  0
  2 20  1  0  0  0  0
  3 27  1  0  0  0  0
  3 28  1  0  0  0  0
  3 29  1  0  0  0  0
  4 30  1  0  0  0  0
  4 31  1  0  0  0  0
  4 32  1  0  0  0  0
  5  6  1  0  0  0  0
  5 15  1  0  0  0  0
  6  7  2  0  0  0  0
  7  8  1  0  0  0  0
  7 14  1  0  0  0  0
  8  9  1  0  0  0  0
  8 33  1  0  0  0  0
  8 34  1  0  0  0  0
  9 10  1  0  0  0  0
  9 35  1  0  0  0  0
  9 36  1  0  0  0  0
 10 11  1  0  0  0  0
 10 37  1  0  0  0  0
 10 38  1  0  0  0  0
 11 12  1  0  0  0  0
 11 39  1  0  0  0  0
 11 40  1  0  0  0  0
 12 13  1  0  0  0  0
 12 41  1  0  0  0  0
 12 42  1  0  0  0  0
 13 14  1  0  0  0  0
 13 43  1  0  0  0  0
 13 44  1  0  0  0  0
 14 15  2  0  0  0  0
 16 17  1  0  0  0  0
 16 18  1  0  0  0  0
 16 19  1  0  0  0  0
 17 45  1  0  0  0  0
 17 46  1  0  0  0  0
 17 47  1  0  0  0  0
 18 48  1  0  0  0  0
 18 49  1  0  0  0  0
 18 50  1  0  0  0  0
 19 51  1  0  0  0  0
 19 52  1  0  0  0  0
 19 53  1  0  0  0  0
 20 21  1  0  0  0  0
 20 22  1  0  0  0  0
 20 23  1  0  0  0  0
 21 54  1  0  0  0  0
 21 55  1  0  0  0  0
 21 56  1  0  0  0  0
 22 57  1  0  0  0  0
 22 58  1  0  0  0  0
 22 59  1  0  0  0  0
 23 60  1  0  0  0  0
 23 61  1  0  0  0  0
 23 62  1  0  0  0  0
M  END
$$$$
