
  --CCDC--092525    3D                              

 62 63  0  0  0  0  0  0  0  0999 V2000
    0.0006    0.0862    0.0981 C      0
    1.8954    0.0092   -0.6556 Pt     0
    1.2697    0.8880   -2.3899 C      0
    3.8321    0.1272   -1.2885 C      0
    2.5018   -1.0708    0.9654 N      0
    1.8803   -2.2073    1.3795 N      0
    2.5193   -2.5350    2.4844 C      0
    2.0829   -3.7240    3.2795 C      0
    1.1652   -3.3621    4.4378 C      0
    1.5292   -2.1330    5.2399 C      0
    2.9409   -2.1307    5.8575 C      0
    3.8857   -1.1335    5.2375 C      0
    4.4993   -1.4557    3.8838 C      0
    3.5316   -1.5875    2.7343 C      0
    3.5161   -0.6752    1.7824 N      0
    1.5378   -2.0835   -1.8065 P      0
    0.1292   -3.0069   -1.1427 C      0
    3.0154   -3.1164   -1.6469 C      0
    1.2389   -1.7815   -3.5656 C      0
    2.2528    2.1007    0.4946 P      0
    1.7082    1.9508    2.2127 C      0
    4.0161    2.5046    0.4834 C      0
    1.3361    3.4680   -0.2552 C      0
   -0.3387    1.1198    0.1139 H      0
   -0.6754   -0.4989   -0.5187 H      0
   -0.0006   -0.3070    1.1127 H      0
    0.2900    0.4978   -2.6584 H      0
    1.2067    1.9651   -2.2711 H      0
    1.9777    0.6610   -3.1839 H      0
    4.0211   -0.6453   -2.0297 H      0
    4.4998   -0.0098   -0.4403 H      0
    4.0086    1.1023   -1.7372 H      0
    2.9676   -4.2175    3.6791 H      0
    1.5533   -4.4081    2.6181 H      0
    1.1494   -4.2091    5.1222 H      0
    0.1674   -3.2058    4.0306 H      0
    0.8091   -2.0380    6.0513 H      0
    1.4507   -1.2689    4.5818 H      0
    3.3676   -3.1254    5.7376 H      0
    2.8492   -1.9005    6.9180 H      0
    4.7081   -0.9925    5.9373 H      0
    3.3385   -0.1984    5.1274 H      0
    5.0363   -2.3985    3.9772 H      0
    5.2019   -0.6606    3.6385 H      0
   -0.0698   -3.8896   -1.7472 H      0
   -0.7706   -2.3955   -1.1387 H      0
    0.3174   -3.3367   -0.1239 H      0
    2.8459   -4.1019   -2.0750 H      0
    3.2834   -3.2426   -0.6001 H      0
    3.8635   -2.6711   -2.1612 H      0
    1.1187   -2.7202   -4.1026 H      0
    2.0715   -1.2415   -4.0110 H      0
    0.3363   -1.1914   -3.7093 H      0
    2.3346    1.2513    2.7617 H      0
    0.6809    1.5954    2.2622 H      0
    1.7571    2.9140    2.7165 H      0
    4.3613    2.6987   -0.5298 H      0
    4.2118    3.3900    1.0846 H      0
    4.6014    1.6825    0.8897 H      0
    1.6722    3.6461   -1.2743 H      0
    1.4798    4.3843    0.3137 H      0
    0.2705    3.2492   -0.2814 H      0
  1  2  1
  2  3  1
  2  4  1
  2  5  1
  5  6  1
  6  7  2
  7  8  1
  8  9  1
  9 10  1
 10 11  1
 11 12  1
 12 13  1
 13 14  1
  7 14  1
 14 15  2
  5 15  1
  2 16  1
 16 17  1
 16 18  1
 16 19  1
  2 20  1
 20 21  1
 20 22  1
 20 23  1
  1 24  1
  1 25  1
  1 26  1
  3 27  1
  3 28  1
  3 29  1
  4 30  1
  4 31  1
  4 32  1
  8 33  1
  8 34  1
  9 35  1
  9 36  1
 10 37  1
 10 38  1
 11 39  1
 11 40  1
 12 41  1
 12 42  1
 13 43  1
 13 44  1
 17 45  1
 17 46  1
 17 47  1
 18 48  1
 18 49  1
 18 50  1
 19 51  1
 19 52  1
 19 53  1
 21 54  1
 21 55  1
 21 56  1
 22 57  1
 22 58  1
 22 59  1
 23 60  1
 23 61  1
 23 62  1
M  END
$$$$
