
  --CCDC--092525    3D                              

 73 75  0  0  0  0  0  0  0  0999 V2000
    2.6475   -0.6343   -0.2646 H      0
    2.6479    0.4476   -0.1828 C      0
    2.3720    1.2255   -1.2848 C      0
    2.1594    0.7535   -2.2383 H      0
    2.3689    2.6071   -1.1849 C      0
    2.1759    3.1945   -2.0730 H      0
    2.6252    3.2361    0.0315 C      0
    2.6259    4.7436    0.1846 C      0
    2.7252    5.7952   -0.3884 C      0
    2.8653    6.3393   -1.7879 C      0
    2.3541    5.5913   -2.8459 C      0
    1.8383    4.6604   -2.6387 H      0
    2.4689    6.0186   -4.1582 C      0
    2.0713    5.4077   -4.9619 H      0
    3.0799    7.2170   -4.4471 C      0
    3.1721    7.5510   -5.4752 H      0
    3.5677    7.9906   -3.4191 C      0
    4.0413    8.9420   -3.6375 H      0
    3.4578    7.5610   -2.1070 C      0
    3.8442    8.1924   -1.3151 H      0
    2.7820    6.0973    1.5295 Co     3
    4.1777    5.2034    2.5158 N      0
    5.0733    4.6976    3.0275 C      0
    6.1870    4.0464    3.7032 C      0
    7.0024    3.8572    3.0082 H      0
    5.8765    3.0945    4.1288 H      0
    6.5669    4.6704    4.5095 H      0
    1.2896    7.8876    1.6326 P      0
   -0.4814    7.9499    1.2653 C      0
   -0.6531    8.3666    0.2751 H      0
   -1.0013    8.5746    1.9886 H      0
   -0.9270    6.9586    1.2950 H      0
    1.5468    8.5738   -0.0195 C      0
    1.2295    7.8678   -0.7816 H      0
    2.5732    8.8537   -0.2063 H      0
    0.9385    9.4673   -0.1441 H      0
    1.5404    8.9797    3.0607 C      0
    1.6733    8.4364    3.9881 H      0
    0.6703    9.6203    3.1882 H      0
    2.4018    9.6281    2.9530 H      0
    4.4429    7.6653    1.9317 P      0
    4.2720    7.8226    3.7337 C      0
    5.0330    7.2620    4.2656 H      0
    4.3942    8.8641    4.0235 H      0
    3.3162    7.4863    4.1128 H      0
    5.5756    6.8472    0.7745 C      0
    5.1665    5.9116    0.4175 H      0
    6.5489    6.6274    1.1993 H      0
    5.7447    7.4856   -0.0901 H      0
    4.3166    9.2921    1.1438 C      0
    4.4840    9.1995    0.0730 H      0
    5.0726    9.9680    1.5380 H      0
    3.3445    9.7553    1.2731 H      0
    1.4081    5.2634    3.2185 P      0
    0.4213    6.3834    4.2473 C      0
   -0.1065    7.1257    3.6552 H      0
   -0.3180    5.8226    4.8154 H      0
    1.0572    6.9057    4.9587 H      0
    2.5593    4.9009    4.5638 C      0
    3.0528    3.9454    4.4107 H      0
    2.0166    4.8233    5.5036 H      0
    3.3061    5.6833    4.6725 H      0
    0.1488    4.3843    2.2469 C      0
    0.6008    3.6221    1.6187 H      0
   -0.5605    3.8912    2.9083 H      0
   -0.4152    5.0522    1.6002 H      0
    2.9226    2.4315    1.1284 C      0
    3.1513    2.8935    2.0827 H      0
    2.9288    1.0509    1.0222 C      0
    3.1557    0.4427    1.8916 H      0
    0.5692    6.7462    1.9375 H      0
    5.6898    7.3890    2.5051 H      0
    1.4773    3.8939    3.4996 H      0
  1  2  1
  2  3  4
  3  4  1
  3  5  4
  5  6  1
  5  7  4
  7  8  1
  8  9  3
  9 10  1
 10 11  4
 11 12  1
 11 13  4
 13 14  1
 13 15  4
 15 16  1
 15 17  4
 17 18  1
 17 19  4
 10 19  4
 19 20  1
  9 21  1
  8 21  1
 21 22  1
 22 23  3
 23 24  1
 24 25  1
 24 26  1
 24 27  1
 21 28  1
 28 29  1
 29 30  1
 29 31  1
 29 32  1
 28 33  1
 33 34  1
 33 35  1
 33 36  1
 28 37  1
 37 38  1
 37 39  1
 37 40  1
 21 41  1
 41 42  1
 42 43  1
 42 44  1
 42 45  1
 41 46  1
 46 47  1
 46 48  1
 46 49  1
 41 50  1
 50 51  1
 50 52  1
 50 53  1
 21 54  1
 54 55  1
 55 56  1
 55 57  1
 55 58  1
 54 59  1
 59 60  1
 59 61  1
 59 62  1
 54 63  1
 63 64  1
 63 65  1
 63 66  1
  7 67  4
 67 68  1
 67 69  4
  2 69  4
 69 70  1
 28 71  1
 41 72  1
 54 73  1
M  CHG  1  21   1
M  END
$$$$
