
 OpenBabel09252514263D

 87103  0  0  0  0  0  0  0  0999 V2000
    0.8180    1.0620   -0.2230 H   0  0  0  0  0  0  0  0  0  0  0  0
    1.8030   -0.0000    0.2970 Ru  0  0  0  0  0  0  0  0  0  0  0  0
    0.8190   -1.0620   -0.2240 Cl  0  0  0  0  0  2  0  0  0  0  0  0
   -0.2760   -0.0000   -0.0710 Ru  0  0  0  0  0  0  0  0  0  0  0  0
    3.2889    1.9917    0.7725 P   0  3  0  0  0  0  0  0  0  0  0  0
    3.0723    2.5125    2.5134 C   0  0  0  0  0  0  0  0  0  0  0  0
    2.7113    3.8175    2.8054 C   0  0  0  0  0  0  0  0  0  0  0  0
    2.9575    4.1940    4.1469 C   0  0  0  0  0  0  0  0  0  0  0  0
    3.1600    3.3449    5.1379 C   0  0  0  0  0  0  0  0  0  0  0  0
    3.4454    2.0552    4.7850 C   0  0  0  0  0  0  0  0  0  0  0  0
    3.3541    1.6437    3.4772 C   0  0  0  0  0  0  0  0  0  0  0  0
    5.0367    1.5308    0.4866 C   0  0  0  0  0  0  0  0  0  0  0  0
    5.9403    1.6163    1.5330 C   0  0  0  0  0  0  0  0  0  0  0  0
    7.2936    1.5204    1.1311 C   0  0  0  0  0  0  0  0  0  0  0  0
    7.6976    1.0399   -0.0307 C   0  0  0  0  0  0  0  0  0  0  0  0
    6.7435    0.9155   -1.0022 C   0  0  0  0  0  0  0  0  0  0  0  0
    5.4149    1.1203   -0.7182 C   0  0  0  0  0  0  0  0  0  0  0  0
   -1.4770   -0.0000    0.8690 C   0  0  0  0  0  0  0  0  0  0  0  0
   -2.0468    0.0000    2.2782 C   0  0  0  0  0  0  0  0  0  0  0  0
   -1.6880    0.0000   -0.6480 C   0  0  0  0  0  0  0  0  0  0  0  0
   -2.6206    0.0000   -1.8483 C   0  0  0  0  0  0  0  0  0  0  0  0
    2.2871    2.5448    2.9356 C   0  0  0  0  0  0  0  0  0  0  0  0
    1.6349    2.4908    4.3075 C   0  0  0  0  0  0  0  0  0  0  0  0
    1.6020    1.8988    1.7424 C   0  0  0  0  0  0  0  0  0  0  0  0
    2.2543    1.9528    0.3706 C   0  0  0  0  0  0  0  0  0  0  0  0
    0.4051    1.2724    1.9023 C   0  0  0  0  0  0  0  0  0  0  0  0
   -0.2472    1.2184    3.2742 C   0  0  0  0  0  0  0  0  0  0  0  0
   -0.2800    0.6264    0.7091 C   0  0  0  0  0  0  0  0  0  0  0  0
    0.3722    0.6804   -0.6628 C   0  0  0  0  0  0  0  0  0  0  0  0
    0.3319    1.5536    0.8890 C   0  0  0  0  0  0  0  0  0  0  0  0
   -0.7335    2.2517    0.0596 C   0  0  0  0  0  0  0  0  0  0  0  0
    0.8307    2.6398    1.7298 C   0  0  0  0  0  0  0  0  0  0  0  0
    2.2979    2.6634    2.1263 C   0  0  0  0  0  0  0  0  0  0  0  0
    0.0350    3.5945    2.1482 C   0  0  0  0  0  0  0  0  0  0  0  0
    0.5515    4.7254    3.0227 C   0  0  0  0  0  0  0  0  0  0  0  0
   -1.5473    3.5214    1.6893 C   0  0  0  0  0  0  0  0  0  0  0  0
   -2.5494    4.5797    2.1207 C   0  0  0  0  0  0  0  0  0  0  0  0
   -1.9694    2.3153    0.7912 C   0  0  0  0  0  0  0  0  0  0  0  0
   -3.4061    2.1610    0.3195 C   0  0  0  0  0  0  0  0  0  0  0  0
   -1.0570    1.4418    0.4551 C   0  0  0  0  0  0  0  0  0  0  0  0
   -1.4575    0.2657   -0.4205 C   0  0  0  0  0  0  0  0  0  0  0  0
    2.2849    4.4807    2.0821 H   0  0  0  0  0  0  0  0  0  0  0  0
    2.9813    5.2393    4.3742 H   0  0  0  0  0  0  0  0  0  0  0  0
    3.1037    3.6499    6.1620 H   0  0  0  0  0  0  0  0  0  0  0  0
    3.7441    1.3562    5.5381 H   0  0  0  0  0  0  0  0  0  0  0  0
    3.5115    0.6138    3.2333 H   0  0  0  0  0  0  0  0  0  0  0  0
    5.6420    1.7433    2.5527 H   0  0  0  0  0  0  0  0  0  0  0  0
    8.0416    1.8609    1.8162 H   0  0  0  0  0  0  0  0  0  0  0  0
    8.7167    0.7628   -0.2026 H   0  0  0  0  0  0  0  0  0  0  0  0
    7.0358    0.6548   -1.9980 H   0  0  0  0  0  0  0  0  0  0  0  0
    4.6783    0.9475   -1.4748 H   0  0  0  0  0  0  0  0  0  0  0  0
   -2.6481    0.8736    2.4197 H   0  0  0  0  0  0  0  0  0  0  0  0
   -2.6481   -0.8737    2.4197 H   0  0  0  0  0  0  0  0  0  0  0  0
   -1.2453    0.0000    2.9870 H   0  0  0  0  0  0  0  0  0  0  0  0
   -3.2377   -0.8736   -1.8205 H   0  0  0  0  0  0  0  0  0  0  0  0
   -3.2377    0.8737   -1.8205 H   0  0  0  0  0  0  0  0  0  0  0  0
   -2.0428    0.0000   -2.7489 H   0  0  0  0  0  0  0  0  0  0  0  0
    0.6793    2.9705    4.2672 H   0  0  0  0  0  0  0  0  0  0  0  0
    1.5094    1.4700    4.6029 H   0  0  0  0  0  0  0  0  0  0  0  0
    2.2568    2.9938    5.0182 H   0  0  0  0  0  0  0  0  0  0  0  0
    2.4349    0.9574    0.0221 H   0  0  0  0  0  0  0  0  0  0  0  0
    1.6048    2.4578   -0.3136 H   0  0  0  0  0  0  0  0  0  0  0  0
    3.1823    2.4812    0.4374 H   0  0  0  0  0  0  0  0  0  0  0  0
   -1.2028    1.6981    3.2339 H   0  0  0  0  0  0  0  0  0  0  0  0
   -0.3727    0.1977    3.5695 H   0  0  0  0  0  0  0  0  0  0  0  0
    0.3747    1.7215    3.9849 H   0  0  0  0  0  0  0  0  0  0  0  0
    0.5528   -0.3150   -1.0112 H   0  0  0  0  0  0  0  0  0  0  0  0
   -0.2773    1.1854   -1.3469 H   0  0  0  0  0  0  0  0  0  0  0  0
    1.3003    1.2088   -0.5959 H   0  0  0  0  0  0  0  0  0  0  0  0
   -0.2694    2.7730   -0.7514 H   0  0  0  0  0  0  0  0  0  0  0  0
   -1.4168    1.5251   -0.3279 H   0  0  0  0  0  0  0  0  0  0  0  0
   -1.2644    2.9484    0.6742 H   0  0  0  0  0  0  0  0  0  0  0  0
    2.7508    3.5626    1.7641 H   0  0  0  0  0  0  0  0  0  0  0  0
    2.3798    2.6273    3.1926 H   0  0  0  0  0  0  0  0  0  0  0  0
    2.7958    1.8170    1.7015 H   0  0  0  0  0  0  0  0  0  0  0  0
    0.9493    4.3214    3.9302 H   0  0  0  0  0  0  0  0  0  0  0  0
    1.3203    5.2567    2.5016 H   0  0  0  0  0  0  0  0  0  0  0  0
   -0.2516    5.3942    3.2520 H   0  0  0  0  0  0  0  0  0  0  0  0
   -2.6064    4.6025    3.1889 H   0  0  0  0  0  0  0  0  0  0  0  0
   -2.2351    5.5367    1.7598 H   0  0  0  0  0  0  0  0  0  0  0  0
   -3.5121    4.3449    1.7171 H   0  0  0  0  0  0  0  0  0  0  0  0
   -4.0532    2.0802    1.1678 H   0  0  0  0  0  0  0  0  0  0  0  0
   -3.6844    3.0154   -0.2614 H   0  0  0  0  0  0  0  0  0  0  0  0
   -3.4919    1.2788   -0.2799 H   0  0  0  0  0  0  0  0  0  0  0  0
   -2.2115   -0.3084    0.0764 H   0  0  0  0  0  0  0  0  0  0  0  0
   -1.8408    0.6282   -1.3514 H   0  0  0  0  0  0  0  0  0  0  0  0
   -0.6021   -0.3508   -0.6028 H   0  0  0  0  0  0  0  0  0  0  0  0
  1  2  1  0  0  0  0
  1  4  1  0  0  0  0
  2  3  1  0  0  0  0
  2  4  1  0  0  0  0
  2  5  1  0  0  0  0
  2 30  1  0  0  0  0
  2 32  1  0  0  0  0
  2 34  1  0  0  0  0
  2 36  1  0  0  0  0
  2 38  1  0  0  0  0
  2 40  1  0  0  0  0
  3  4  1  0  0  0  0
  4  5  1  0  0  0  0
  4 18  1  0  0  0  0
  4 20  1  0  0  0  0
  4 22  1  0  0  0  0
  4 24  1  0  0  0  0
  4 26  1  0  0  0  0
  4 28  1  0  0  0  0
  5  6  1  0  0  0  0
  5 12  1  0  0  0  0
  6  7  1  0  0  0  0
  6 11  2  0  0  0  0
  7  8  2  0  0  0  0
  7 42  1  0  0  0  0
  8  9  1  0  0  0  0
  8 43  1  0  0  0  0
  9 10  2  0  0  0  0
  9 44  1  0  0  0  0
 10 11  1  0  0  0  0
 10 45  1  0  0  0  0
 11 46  1  0  0  0  0
 12 13  1  0  0  0  0
 12 17  2  0  0  0  0
 13 14  2  0  0  0  0
 13 47  1  0  0  0  0
 14 15  1  0  0  0  0
 14 48  1  0  0  0  0
 15 16  2  0  0  0  0
 15 49  1  0  0  0  0
 16 17  1  0  0  0  0
 16 50  1  0  0  0  0
 17 51  1  0  0  0  0
 18 19  1  0  0  0  0
 18 20  1  0  0  0  0
 18 28  2  0  0  0  0
 19 52  1  0  0  0  0
 19 53  1  0  0  0  0
 19 54  1  0  0  0  0
 20 21  1  0  0  0  0
 20 22  2  0  0  0  0
 21 55  1  0  0  0  0
 21 56  1  0  0  0  0
 21 57  1  0  0  0  0
 22 23  1  0  0  0  0
 22 24  1  0  0  0  0
 23 58  1  0  0  0  0
 23 59  1  0  0  0  0
 23 60  1  0  0  0  0
 24 25  1  0  0  0  0
 24 26  2  0  0  0  0
 25 61  1  0  0  0  0
 25 62  1  0  0  0  0
 25 63  1  0  0  0  0
 26 27  1  0  0  0  0
 26 28  1  0  0  0  0
 27 64  1  0  0  0  0
 27 65  1  0  0  0  0
 27 66  1  0  0  0  0
 28 29  1  0  0  0  0
 29 67  1  0  0  0  0
 29 68  1  0  0  0  0
 29 69  1  0  0  0  0
 30 31  1  0  0  0  0
 30 32  1  0  0  0  0
 30 40  2  0  0  0  0
 31 70  1  0  0  0  0
 31 71  1  0  0  0  0
 31 72  1  0  0  0  0
 32 33  1  0  0  0  0
 32 34  2  0  0  0  0
 33 73  1  0  0  0  0
 33 74  1  0  0  0  0
 33 75  1  0  0  0  0
 34 35  1  0  0  0  0
 34 36  1  0  0  0  0
 35 76  1  0  0  0  0
 35 77  1  0  0  0  0
 35 78  1  0  0  0  0
 36 37  1  0  0  0  0
 36 38  2  0  0  0  0
 37 79  1  0  0  0  0
 37 80  1  0  0  0  0
 37 81  1  0  0  0  0
 38 39  1  0  0  0  0
 38 40  1  0  0  0  0
 39 82  1  0  0  0  0
 39 83  1  0  0  0  0
 39 84  1  0  0  0  0
 40 41  1  0  0  0  0
 41 85  1  0  0  0  0
 41 86  1  0  0  0  0
 41 87  1  0  0  0  0
M  CHG  1   5   1
M  END
$$$$
