
     RDKit          3D

 55 59  0  0  0  0  0  0  0  0999 V2000
   -3.9585   -3.2966   -0.8116 C   0  0  0  0  0  0  0  0  0  0  0  0
   -3.2148   -2.6077   -1.7497 C   0  0  0  0  0  0  0  0  0  0  0  0
   -2.4580   -1.4978   -1.4037 C   0  0  0  0  0  0  0  0  0  0  0  0
   -2.4428   -1.0663   -0.0949 C   0  0  0  0  0  0  0  0  0  0  0  0
   -1.4928    0.3656    0.4624 P   0  0  0  0  0  5  0  0  0  0  0  0
   -2.4964    1.7854    0.1084 C   0  0  0  0  0  0  0  0  0  0  0  0
   -3.0682    2.5260    1.1217 C   0  0  0  0  0  0  0  0  0  0  0  0
   -3.8324    3.6133    0.7413 C   0  0  0  0  0  0  0  0  0  0  0  0
   -4.0090    3.9355   -0.6041 C   0  0  0  0  0  0  0  0  0  0  0  0
   -3.4220    3.1722   -1.5889 C   0  0  0  0  0  0  0  0  0  0  0  0
   -2.6517    2.0779   -1.2375 C   0  0  0  0  0  0  0  0  0  0  0  0
   -1.1611    0.1871    2.3254 S   0  0  0  0  0  4  0  0  0  0  0  0
   -0.4677   -1.8649    2.2162 Cu  0  0  0  0  0  3  0  0  0  0  0  0
   -0.8279   -2.9456    3.7403 I   0  0  0  0  0  0  0  0  0  0  0  0
    0.7115   -2.1275    0.8578 S   0  0  0  0  0  4  0  0  0  0  0  0
    1.3565   -0.5372    0.0844 P   0  0  0  0  0  5  0  0  0  0  0  0
    2.3492    0.3001    1.3376 C   0  0  0  0  0  0  0  0  0  0  0  0
    2.7602    1.6008    1.0391 C   0  0  0  0  0  0  0  0  0  0  0  0
    3.5246    2.3187    1.9413 C   0  0  0  0  0  0  0  0  0  0  0  0
    3.8955    1.7687    3.1487 C   0  0  0  0  0  0  0  0  0  0  0  0
    3.4834    0.4851    3.4305 C   0  0  0  0  0  0  0  0  0  0  0  0
    2.7211   -0.2467    2.5442 C   0  0  0  0  0  0  0  0  0  0  0  0
    2.4653   -0.8577   -1.2850 C   0  0  0  0  0  0  0  0  0  0  0  0
    3.7840   -1.1805   -1.0250 C   0  0  0  0  0  0  0  0  0  0  0  0
    4.7251   -1.4466   -1.9978 C   0  0  0  0  0  0  0  0  0  0  0  0
    4.3369   -1.3901   -3.3200 C   0  0  0  0  0  0  0  0  0  0  0  0
    3.0431   -1.0745   -3.6079 C   0  0  0  0  0  0  0  0  0  0  0  0
    2.1155   -0.8113   -2.6211 C   0  0  0  0  0  0  0  0  0  0  0  0
    0.0343    0.5382   -0.4976 C   0  0  0  0  0  0  0  0  0  0  0  0
   -3.2021   -1.7837    0.8176 C   0  0  0  0  0  0  0  0  0  0  0  0
   -3.9637   -2.8881    0.5095 C   0  0  0  0  0  0  0  0  0  0  0  0
   -4.5576   -4.1671   -1.0600 H   0  0  0  0  0  0  0  0  0  0  0  0
   -3.2284   -2.9502   -2.7818 H   0  0  0  0  0  0  0  0  0  0  0  0
   -1.8810   -0.9563   -2.1088 H   0  0  0  0  0  0  0  0  0  0  0  0
   -2.9079    2.2438    2.1599 H   0  0  0  0  0  0  0  0  0  0  0  0
   -4.2888    4.2055    1.5296 H   0  0  0  0  0  0  0  0  0  0  0  0
   -4.5986    4.7746   -0.9007 H   0  0  0  0  0  0  0  0  0  0  0  0
   -3.5572    3.4205   -2.6471 H   0  0  0  0  0  0  0  0  0  0  0  0
   -2.1945    1.4846   -2.0265 H   0  0  0  0  0  0  0  0  0  0  0  0
    0.0153    0.7848    2.7007 H   0  0  0  0  0  0  0  0  0  0  0  0
    0.4217   -3.1079   -0.0547 H   0  0  0  0  0  0  0  0  0  0  0  0
    2.4886    2.0553    0.1104 H   0  0  0  0  0  0  0  0  0  0  0  0
    3.8760    3.3331    1.7698 H   0  0  0  0  0  0  0  0  0  0  0  0
    4.4843    2.2111    3.9386 H   0  0  0  0  0  0  0  0  0  0  0  0
    3.6990   -0.0762    4.3394 H   0  0  0  0  0  0  0  0  0  0  0  0
    2.3530   -1.2489    2.6722 H   0  0  0  0  0  0  0  0  0  0  0  0
    4.1629   -1.2436    0.0049 H   0  0  0  0  0  0  0  0  0  0  0  0
    5.7536   -1.6977   -1.7749 H   0  0  0  0  0  0  0  0  0  0  0  0
    5.0623   -1.5966   -4.1118 H   0  0  0  0  0  0  0  0  0  0  0  0
    2.7560   -1.0347   -4.6487 H   0  0  0  0  0  0  0  0  0  0  0  0
    1.0862   -0.5599   -2.8393 H   0  0  0  0  0  0  0  0  0  0  0  0
   -0.2664    0.2607   -1.5443 H   0  0  0  0  0  0  0  0  0  0  0  0
    0.3725    1.5972   -0.4769 H   0  0  0  0  0  0  0  0  0  0  0  0
   -3.1767   -1.4247    1.8527 H   0  0  0  0  0  0  0  0  0  0  0  0
   -4.5114   -3.3591    1.3157 H   0  0  0  0  0  0  0  0  0  0  0  0
  1  2  2  0
  2  3  1  0
  3  4  2  0
  4  5  1  0
  5  6  1  0
  6  7  2  0
  7  8  1  0
  8  9  2  0
  9 10  1  0
 10 11  2  0
  5 12  2  0
 12 13  1  0
 13 14  1  0
 13 15  1  0
 15 16  2  0
 16 17  1  0
 17 18  2  0
 18 19  1  0
 19 20  2  0
 20 21  1  0
 21 22  2  0
 16 23  1  0
 23 24  2  0
 24 25  1  0
 25 26  2  0
 26 27  1  0
 27 28  2  0
 16 29  1  0
  4 30  1  0
 30 31  2  0
 31  1  1  0
 29  5  1  0
 11  6  1  0
 22 17  1  0
 28 23  1  0
  1 32  1  0
  2 33  1  0
  3 34  1  0
  7 35  1  0
  8 36  1  0
  9 37  1  0
 10 38  1  0
 11 39  1  0
 12 40  1  0
 15 41  1  0
 18 42  1  0
 19 43  1  0
 20 44  1  0
 21 45  1  0
 22 46  1  0
 24 47  1  0
 25 48  1  0
 26 49  1  0
 27 50  1  0
 28 51  1  0
 29 52  1  0
 29 53  1  0
 30 54  1  0
 31 55  1  0
M  END
