
  --CCDC--092525    3D                              

 26 29  0  0  0  0  0  0  0  0999 V2000
    1.3515   -2.3166    2.1007 H      0
    0.5148   -1.8533    1.5954 C      0
    0.8954   -1.1448    0.4189 C      0
    2.3316   -1.0183    0.1231 C      0
    2.7835   -0.4557   -0.8696 O      0
    3.2672   -1.4730    1.1907 C      0
    2.9224   -1.0707    2.1433 H      0
    4.2888   -1.1320    1.0346 H      0
    3.2811   -2.5586    1.2534 H      0
   -0.1154   -0.3629   -0.4052 C      0
   -0.3579   -0.3741   -1.4734 H      0
   -0.8589   -0.1460    0.8730 C      0
   -0.8281   -0.7000    1.9429 H      0
   -2.3094   -0.6026    1.0462 C      0
   -2.9112   -0.7001    0.1027 H      0
   -2.0903   -1.8659    1.8840 C      0
   -2.5621   -2.8092    1.5085 H      0
   -0.7058   -2.1297    2.2933 N      0
   -0.6328   -2.7452    3.1034 H      0
   -1.2466   -2.0738    0.0129 Fe     0
   -0.0584   -3.0082   -1.5793 C      0
    0.5547   -3.4957   -2.4034 O      0
   -2.7121   -2.9595   -1.3693 C      0
   -3.4300   -3.4272   -2.1153 O      0
   -0.6698   -4.1512    0.4792 C      0
   -0.3709   -5.2279    0.7208 O      0
  1  2  1
  2  3  2
  3  4  1
  4  5  2
  4  6  1
  6  7  1
  6  8  1
  6  9  1
  3 10  1
 10 11  1
 10 12  2
 12 13  1
 12 14  1
 14 15  1
 14 16  2
 16 17  1
 16 18  1
  2 18  1
 18 19  1
 16 20  1
 14 20  1
 12 20  1
 10 20  1
 20 21  1
 21 22  3
 20 23  1
 23 24  3
 20 25  1
 25 26  3
M  END
$$$$
