
 OpenBabel09252516003D

 68 74  0  0  1  0  0  0  0  0999 V2000
    1.0305   -0.0884   -0.0353 H   0  0  0  0  0  0  0  0  0  0  0  0
    2.1005   -0.0884   -0.0353 C   0  0  0  0  0  0  0  0  0  0  0  0
    2.4572    0.1568    0.9432 H   0  0  0  0  0  0  0  0  0  0  0  0
    2.4572   -1.0585   -0.3122 H   0  0  0  0  0  0  0  0  0  0  0  0
    2.7039    1.1377   -1.2223 S   0  0  0  0  0  0  0  0  0  0  0  0
    2.1937    2.5252   -0.8262 O   0  0  0  0  0  0  0  0  0  0  0  0
   -0.3822    2.9855   -0.6949 U   0  3  0  0  0  0  0  0  0  0  0  0
   -1.7588    5.2051   -0.9018 O   0  0  0  0  0  0  0  0  0  0  0  0
   -2.4176    5.4824   -2.2551 S   0  0  0  0  0  0  0  0  0  0  0  0
   -3.0431    3.9328   -2.9504 C   0  0  0  0  0  0  0  0  0  0  0  0
   -3.7637    3.5078   -2.2834 H   0  0  0  0  0  0  0  0  0  0  0  0
   -3.5037    4.1267   -3.8966 H   0  0  0  0  0  0  0  0  0  0  0  0
   -2.2317    3.2479   -3.0824 H   0  0  0  0  0  0  0  0  0  0  0  0
   -3.7901    6.6410   -2.0318 C   0  0  0  0  0  0  0  0  0  0  0  0
   -4.5107    6.2160   -1.3648 H   0  0  0  0  0  0  0  0  0  0  0  0
   -3.4203    7.5571   -1.6207 H   0  0  0  0  0  0  0  0  0  0  0  0
   -4.2507    6.8349   -2.9779 H   0  0  0  0  0  0  0  0  0  0  0  0
   -1.4638    1.0960   -2.1524 O   0  0  0  0  0  0  0  0  0  0  0  0
   -2.7762    1.2611   -2.6687 C   0  0  0  0  0  0  0  0  0  0  0  0
   -3.7623    0.6381   -2.1641 O   0  0  0  0  0  0  0  0  0  0  0  0
    1.9568    7.3552    2.2310 C   0  0  0  0  0  0  0  0  0  0  0  0
    2.3517    8.2531    2.6584 H   0  0  0  0  0  0  0  0  0  0  0  0
    2.2249    8.3055    2.6432 H   0  0  0  0  0  0  0  0  0  0  0  0
    1.8428    5.9229    1.9204 N   0  0  1  0  0  4  0  0  0  0  0  0
    2.7283    5.4961    3.0926 C   0  0  0  0  0  0  0  0  0  0  0  0
    2.8869    5.8968    4.0720 H   0  0  0  0  0  0  0  0  0  0  0  0
    1.8971    4.9343    3.4645 H   0  0  0  0  0  0  0  0  0  0  0  0
    4.0553    4.9487    2.5656 C   0  0  0  0  0  0  0  0  0  0  0  0
    4.9210    5.5722    2.6468 H   0  0  0  0  0  0  0  0  0  0  0  0
    4.3400    5.1060    1.5462 H   0  0  0  0  0  0  0  0  0  0  0  0
    3.9874    3.4223    2.4866 N   0  0  1  0  0  4  0  0  0  0  0  0
   -2.4163    3.3570    2.2736 C   0  0  0  0  0  0  0  0  0  0  0  0
   -3.0905    4.1422    2.5453 H   0  0  0  0  0  0  0  0  0  0  0  0
   -3.3607    3.5985    1.8324 H   0  0  0  0  0  0  0  0  0  0  0  0
   -1.8670    1.9421    2.3560 C   0  0  0  0  0  0  0  0  0  0  0  0
   -2.8690    1.1617    2.4023 O   0  0  0  0  0  0  0  0  0  0  0  0
   -1.0123    1.4517    1.3336 O   0  0  0  0  0  0  0  0  0  0  0  0
    4.6836    2.9442    1.2119 C   0  0  0  0  0  0  0  0  0  0  0  0
    5.6055    3.4633    1.0520 H   0  0  0  0  0  0  0  0  0  0  0  0
    4.6184    3.1594    0.1658 H   0  0  0  0  0  0  0  0  0  0  0  0
    4.1006    1.5970    0.7820 C   0  0  0  0  0  0  0  0  0  0  0  0
    4.7081    1.0671    1.4856 H   0  0  0  0  0  0  0  0  0  0  0  0
    3.2395    0.9619    0.7823 H   0  0  0  0  0  0  0  0  0  0  0  0
    3.5833    1.6962   -0.6536 N   0  0  2  0  0  4  0  0  0  0  0  0
    4.4276    1.4203   -1.1551 H   0  0  0  0  0  0  0  0  0  0  0  0
    2.1103    2.1099   -0.6430 C   0  0  0  0  0  0  0  0  0  0  0  0
    2.1591    1.9027    0.4056 H   0  0  0  0  0  0  0  0  0  0  0  0
    1.2130    1.7327   -1.0872 H   0  0  0  0  0  0  0  0  0  0  0  0
    1.9337    3.3949   -1.4561 C   0  0  0  0  0  0  0  0  0  0  0  0
    2.7387    3.9238   -1.9221 H   0  0  0  0  0  0  0  0  0  0  0  0
    2.0321    3.1843   -2.5005 H   0  0  0  0  0  0  0  0  0  0  0  0
    0.5653    4.0113   -1.1626 N   0  0  1  0  0  4  0  0  0  0  0  0
   -0.0675    4.5169   -2.4464 C   0  0  0  0  0  0  0  0  0  0  0  0
    0.3012    5.3986   -2.9276 H   0  0  0  0  0  0  0  0  0  0  0  0
    0.1833    4.7293   -3.4646 H   0  0  0  0  0  0  0  0  0  0  0  0
   -1.1818    3.7803   -2.6188 C   0  0  0  0  0  0  0  0  0  0  0  0
   -1.0863    3.1377   -3.7111 O   0  0  0  0  0  0  0  0  0  0  0  0
   -1.3581    2.9107   -1.6178 O   0  0  0  0  0  0  0  0  0  0  0  0
    0.6786    5.1505   -0.1488 C   0  0  0  0  0  0  0  0  0  0  0  0
    0.6361    6.2190   -0.1109 H   0  0  0  0  0  0  0  0  0  0  0  0
   -0.3159    5.2410   -0.5330 H   0  0  0  0  0  0  0  0  0  0  0  0
    1.5004    4.7038    1.0608 C   0  0  0  0  0  0  0  0  0  0  0  0
    2.3714    4.3408    1.5653 H   0  0  0  0  0  0  0  0  0  0  0  0
    0.9266    3.8443    0.7834 H   0  0  0  0  0  0  0  0  0  0  0  0
    4.5139    1.1377   -1.2223 C   0  0  0  0  0  0  0  0  0  0  0  0
    4.8705    1.3829   -0.2437 H   0  0  0  0  0  0  0  0  0  0  0  0
    4.8705    0.1676   -1.4991 H   0  0  0  0  0  0  0  0  0  0  0  0
    4.8705    1.8625   -1.9239 H   0  0  0  0  0  0  0  0  0  0  0  0
  1  2  1  0  0  0  0
  2  3  1  0  0  0  0
  2  4  1  0  0  0  0
  2  5  1  0  0  0  0
  5  6  2  0  0  0  0
  5 65  1  0  0  0  0
  6  7  1  0  0  0  0
  7 18  1  0  0  0  0
  7 24  1  0  0  0  0
  7 31  1  0  0  0  0
  7 37  1  0  0  0  0
  7 44  1  0  0  0  0
  7 52  1  0  0  0  0
  7 58  1  0  0  0  0
  7  8  1  0  0  0  0
  8  9  2  0  0  0  0
  9 10  1  0  0  0  0
  9 14  1  0  0  0  0
 10 11  1  0  0  0  0
 10 12  1  0  0  0  0
 10 13  1  0  0  0  0
 14 15  1  0  0  0  0
 14 16  1  0  0  0  0
 14 17  1  0  0  0  0
 18 19  1  0  0  0  0
 19 21  1  0  0  0  0
 19 20  2  0  0  0  0
 21 22  1  0  0  0  0
 21 23  1  0  0  0  0
 24 21  1  6  0  0  0
 24 25  1  0  0  0  0
 24 62  1  0  0  0  0
 25 28  1  0  0  0  0
 25 26  1  0  0  0  0
 25 27  1  0  0  0  0
 28 29  1  0  0  0  0
 28 30  1  0  0  0  0
 31 28  1  6  0  0  0
 31 32  1  0  0  0  0
 31 38  1  0  0  0  0
 32 35  1  0  0  0  0
 32 33  1  0  0  0  0
 32 34  1  0  0  0  0
 35 37  1  0  0  0  0
 35 36  2  0  0  0  0
 38 41  1  0  0  0  0
 38 39  1  0  0  0  0
 38 40  1  0  0  0  0
 41 44  1  0  0  0  0
 41 42  1  0  0  0  0
 41 43  1  0  0  0  0
 44 46  1  0  0  0  0
 44 45  1  1  0  0  0
 46 49  1  0  0  0  0
 46 47  1  0  0  0  0
 46 48  1  0  0  0  0
 49 50  1  0  0  0  0
 49 51  1  0  0  0  0
 52 49  1  6  0  0  0
 52 53  1  0  0  0  0
 52 59  1  0  0  0  0
 53 56  1  0  0  0  0
 53 54  1  0  0  0  0
 53 55  1  0  0  0  0
 56 58  1  0  0  0  0
 56 57  2  0  0  0  0
 59 62  1  0  0  0  0
 59 60  1  0  0  0  0
 59 61  1  0  0  0  0
 62 63  1  0  0  0  0
 62 64  1  0  0  0  0
 65 66  1  0  0  0  0
 65 67  1  0  0  0  0
 65 68  1  0  0  0  0
M  CHG  1   7   1
M  END
$$$$
