
 OpenBabel09252517013D

 46 54  0  0  0  0  0  0  0  0999 V2000
    1.0565   -0.0664   -0.0489 Cl  0  0  0  0  0  0  0  0  0  0  0  0
    3.4865   -0.0664   -0.0489 Ir  0  0  0  0  0  0  0  0  0  0  0  0
    2.5157   -0.8347    0.6306 C   0  0  0  0  0  0  0  0  0  0  0  0
    1.5215   -0.2422    1.3366 C   0  0  0  0  0  0  0  0  0  0  0  0
    1.4100    1.1632    1.4166 C   0  0  0  0  0  0  0  0  0  0  0  0
    0.3752    1.7631    2.1475 C   0  0  0  0  0  0  0  0  0  0  0  0
    0.2728    3.1358    2.2187 C   0  0  0  0  0  0  0  0  0  0  0  0
    1.1845    3.9619    1.5734 C   0  0  0  0  0  0  0  0  0  0  0  0
    2.2425    3.3904    0.8261 C   0  0  0  0  0  0  0  0  0  0  0  0
    3.1842    4.1847    0.1609 C   0  0  0  0  0  0  0  0  0  0  0  0
    4.2036    3.5953   -0.5580 C   0  0  0  0  0  0  0  0  0  0  0  0
    4.3195    2.2177   -0.6386 C   0  0  0  0  0  0  0  0  0  0  0  0
    3.3993    1.4005    0.0114 C   0  0  0  0  0  0  0  0  0  0  0  0
    2.3500    1.9841    0.7514 C   0  0  0  0  0  0  0  0  0  0  0  0
    4.9773    0.5581   -1.4968 C   0  0  0  0  0  0  0  0  0  0  0  0
    4.7577    2.0461   -1.2776 C   0  0  0  0  0  0  0  0  0  0  0  0
    6.2690    0.8243   -1.2445 C   0  0  0  0  0  0  0  0  0  0  0  0
    6.9187   -0.4016   -0.6236 C   0  0  0  0  0  0  0  0  0  0  0  0
    6.9191    1.1421   -2.3756 C   0  0  0  0  0  0  0  0  0  0  0  0
    8.3899    1.5120   -2.4777 C   0  0  0  0  0  0  0  0  0  0  0  0
    6.0683    1.0802   -3.3863 C   0  0  0  0  0  0  0  0  0  0  0  0
    6.3659    1.3514   -4.8520 C   0  0  0  0  0  0  0  0  0  0  0  0
    4.7618    0.6910   -2.7949 C   0  0  0  0  0  0  0  0  0  0  0  0
    3.4475    0.4875   -3.5308 C   0  0  0  0  0  0  0  0  0  0  0  0
    2.5658   -1.9027    0.5876 H   0  0  0  0  0  0  0  0  0  0  0  0
   -0.3409    1.1505    2.6543 H   0  0  0  0  0  0  0  0  0  0  0  0
   -0.5246    3.5738    2.7819 H   0  0  0  0  0  0  0  0  0  0  0  0
    1.0876    5.0253    1.6409 H   0  0  0  0  0  0  0  0  0  0  0  0
    3.1131    5.2512    0.2101 H   0  0  0  0  0  0  0  0  0  0  0  0
    4.9171    4.2133   -1.0620 H   0  0  0  0  0  0  0  0  0  0  0  0
    5.1177    1.7808   -1.2015 H   0  0  0  0  0  0  0  0  0  0  0  0
    3.7429    2.2947   -1.5082 H   0  0  0  0  0  0  0  0  0  0  0  0
    4.9613    2.2899   -0.2558 H   0  0  0  0  0  0  0  0  0  0  0  0
    5.4145    2.6011   -1.9144 H   0  0  0  0  0  0  0  0  0  0  0  0
    6.8656   -1.2201   -1.3108 H   0  0  0  0  0  0  0  0  0  0  0  0
    7.9434   -0.1883   -0.4015 H   0  0  0  0  0  0  0  0  0  0  0  0
    6.4044   -0.6595    0.2786 H   0  0  0  0  0  0  0  0  0  0  0  0
    8.5811    2.3811   -1.8835 H   0  0  0  0  0  0  0  0  0  0  0  0
    8.9876    0.6986   -2.1226 H   0  0  0  0  0  0  0  0  0  0  0  0
    8.6362    1.7166   -3.4986 H   0  0  0  0  0  0  0  0  0  0  0  0
    6.7182    2.3554   -4.9646 H   0  0  0  0  0  0  0  0  0  0  0  0
    7.1156    0.6697   -5.1958 H   0  0  0  0  0  0  0  0  0  0  0  0
    5.4734    1.2199   -5.4274 H   0  0  0  0  0  0  0  0  0  0  0  0
    3.1684    1.3970   -4.0204 H   0  0  0  0  0  0  0  0  0  0  0  0
    3.5626   -0.2885   -4.2585 H   0  0  0  0  0  0  0  0  0  0  0  0
    2.6864    0.2107   -2.8316 H   0  0  0  0  0  0  0  0  0  0  0  0
  1  2  1  0  0  0  0
  2  3  1  0  0  0  0
  2  4  1  0  0  0  0
  2 13  1  0  0  0  0
  2 15  1  0  0  0  0
  2 17  1  0  0  0  0
  2 19  1  0  0  0  0
  2 21  1  0  0  0  0
  2 23  1  0  0  0  0
  3  4  2  0  0  0  0
  3 25  1  0  0  0  0
  4  5  1  0  0  0  0
  5  6  1  0  0  0  0
  5 14  2  0  0  0  0
  6  7  2  0  0  0  0
  6 26  1  0  0  0  0
  7  8  1  0  0  0  0
  7 27  1  0  0  0  0
  8  9  2  0  0  0  0
  8 28  1  0  0  0  0
  9 10  1  0  0  0  0
  9 14  1  0  0  0  0
 10 11  2  0  0  0  0
 10 29  1  0  0  0  0
 11 12  1  0  0  0  0
 11 30  1  0  0  0  0
 12 13  2  0  0  0  0
 12 31  1  0  0  0  0
 13 14  1  0  0  0  0
 15 16  1  0  0  0  0
 15 17  1  0  0  0  0
 15 23  2  0  0  0  0
 16 32  1  0  0  0  0
 16 33  1  0  0  0  0
 16 34  1  0  0  0  0
 17 18  1  0  0  0  0
 17 19  1  0  0  0  0
 18 35  1  0  0  0  0
 18 36  1  0  0  0  0
 18 37  1  0  0  0  0
 19 20  1  0  0  0  0
 19 21  2  0  0  0  0
 20 38  1  0  0  0  0
 20 39  1  0  0  0  0
 20 40  1  0  0  0  0
 21 22  1  0  0  0  0
 21 23  1  0  0  0  0
 22 41  1  0  0  0  0
 22 42  1  0  0  0  0
 22 43  1  0  0  0  0
 23 24  1  0  0  0  0
 24 44  1  0  0  0  0
 24 45  1  0  0  0  0
 24 46  1  0  0  0  0
M  END
$$$$
