
     RDKit          3D

 23 24  0  0  0  0  0  0  0  0999 V2000
    3.4537    0.7636    0.5571 C   0  0  0  0  0  0  0  0  0  0  0  0
    2.6193    1.4355   -0.3382 C   0  0  0  0  0  0  0  0  0  0  0  0
    1.3791    0.8953   -0.6773 C   0  0  0  0  0  0  0  0  0  0  0  0
    0.9817   -0.3162   -0.1052 C   0  0  0  0  0  0  0  0  0  0  0  0
   -0.6055   -1.0106   -0.5252 S   0  0  0  0  0  6  0  0  0  0  0  0
   -0.9771   -0.4424   -1.8099 O   0  0  0  0  0  0  0  0  0  0  0  0
   -0.4698   -2.4529   -0.4028 O   0  0  0  0  0  0  0  0  0  0  0  0
   -1.7519   -0.4310    0.7456 C   0  0  2  0  0  0  0  0  0  0  0  0
   -3.0742   -1.0357    0.4383 N   0  0  0  0  0  0  0  0  0  0  0  0
   -3.5834    0.1354   -0.0377 C   0  0  0  0  0  0  0  0  0  0  0  0
   -4.5710    0.3459   -0.6950 O   0  0  0  0  0  0  0  0  0  0  0  0
   -2.4022    0.9412    0.5251 C   0  0  0  0  0  0  0  0  0  0  0  0
    1.8183   -1.0028    0.7790 C   0  0  0  0  0  0  0  0  0  0  0  0
    3.0565   -0.4546    1.1117 C   0  0  0  0  0  0  0  0  0  0  0  0
    4.4237    1.1846    0.8132 H   0  0  0  0  0  0  0  0  0  0  0  0
    2.9427    2.3756   -0.7796 H   0  0  0  0  0  0  0  0  0  0  0  0
    0.7439    1.4171   -1.3900 H   0  0  0  0  0  0  0  0  0  0  0  0
   -1.4145   -0.6511    1.7622 H   0  0  0  0  0  0  0  0  0  0  0  0
   -3.2474   -1.8527   -0.1403 H   0  0  0  0  0  0  0  0  0  0  0  0
   -2.6470    1.4957    1.4352 H   0  0  0  0  0  0  0  0  0  0  0  0
   -1.9187    1.6021   -0.1971 H   0  0  0  0  0  0  0  0  0  0  0  0
    1.5245   -1.9614    1.2015 H   0  0  0  0  0  0  0  0  0  0  0  0
    3.7193   -0.9806    1.7953 H   0  0  0  0  0  0  0  0  0  0  0  0
  1  2  2  0
  2  3  1  0
  3  4  2  0
  4  5  1  0
  5  6  2  0
  5  7  2  0
  5  8  1  0
  8  9  1  0
  9 10  1  0
 10 11  2  0
 10 12  1  0
  4 13  1  0
 13 14  2  0
 14  1  1  0
 12  8  1  0
  1 15  1  0
  2 16  1  0
  3 17  1  0
  8 18  1  1
  9 19  1  0
 12 20  1  0
 12 21  1  0
 13 22  1  0
 14 23  1  0
M  END
