
 OpenBabel09252515463D

 32 35  0  0  0  0  0  0  0  0999 V2000
    0.9404   -0.0105    0.0982 O   0  0  0  0  0  0  0  0  0  0  0  0
    2.1634    0.0294    0.1644 C   0  0  0  0  0  0  0  0  0  0  0  0
    2.8059    1.1912    0.4567 N   0  0  0  0  0  0  0  0  0  0  0  0
    4.1819    1.3461    0.3252 C   0  0  0  0  0  0  0  0  0  0  0  0
    4.7155    2.6311    0.4769 C   0  0  0  0  0  0  0  0  0  0  0  0
    6.0552    2.8584    0.1899 C   0  0  0  0  0  0  0  0  0  0  0  0
    6.8296    1.8164   -0.3061 C   0  0  0  0  0  0  0  0  0  0  0  0
    6.2814    0.5336   -0.4504 C   0  0  0  0  0  0  0  0  0  0  0  0
    4.9688    0.2451   -0.0501 C   0  0  0  0  0  0  0  0  0  0  0  0
    4.3678   -1.1370   -0.0265 C   0  0  0  0  0  0  0  0  0  0  0  0
    3.0136   -1.1957    0.0093 C   0  0  0  0  0  0  0  0  0  0  0  0
    2.1781   -2.4429   -0.0233 C   0  0  0  0  0  0  0  0  0  0  0  0
    2.9144   -3.7598   -0.1889 C   0  0  0  0  0  0  0  0  0  0  0  0
    4.4089   -3.6820   -0.0894 C   0  0  0  0  0  0  0  0  0  0  0  0
    5.1043   -4.9109   -0.0888 C   0  0  0  0  0  0  0  0  0  0  0  0
    6.4824   -4.9523    0.0646 C   0  0  0  0  0  0  0  0  0  0  0  0
    7.1701   -3.7677    0.2645 C   0  0  0  0  0  0  0  0  0  0  0  0
    6.4797   -2.5482    0.2786 C   0  0  0  0  0  0  0  0  0  0  0  0
    5.0964   -2.4581    0.0350 C   0  0  0  0  0  0  0  0  0  0  0  0
    2.2097    1.9941    0.6014 H   0  0  0  0  0  0  0  0  0  0  0  0
    4.0902    3.4598    0.7973 H   0  0  0  0  0  0  0  0  0  0  0  0
    6.4806    3.8511    0.3105 H   0  0  0  0  0  0  0  0  0  0  0  0
    7.8640    1.9978   -0.5885 H   0  0  0  0  0  0  0  0  0  0  0  0
    6.9100   -0.2232   -0.9084 H   0  0  0  0  0  0  0  0  0  0  0  0
    1.5846   -2.4912    0.8999 H   0  0  0  0  0  0  0  0  0  0  0  0
    1.4500   -2.3682   -0.8428 H   0  0  0  0  0  0  0  0  0  0  0  0
    2.5517   -4.4462    0.5895 H   0  0  0  0  0  0  0  0  0  0  0  0
    2.6463   -4.2113   -1.1520 H   0  0  0  0  0  0  0  0  0  0  0  0
    4.5569   -5.8459   -0.1955 H   0  0  0  0  0  0  0  0  0  0  0  0
    7.0080   -5.9028    0.0602 H   0  0  0  0  0  0  0  0  0  0  0  0
    8.2451   -3.7838    0.4247 H   0  0  0  0  0  0  0  0  0  0  0  0
    7.0716   -1.6742    0.5224 H   0  0  0  0  0  0  0  0  0  0  0  0
  1  2  2  0  0  0  0
  2  3  1  0  0  0  0
  2 11  1  0  0  0  0
  3  4  1  0  0  0  0
  3 20  1  0  0  0  0
  4  5  1  0  0  0  0
  4  9  2  0  0  0  0
  5  6  2  0  0  0  0
  5 21  1  0  0  0  0
  6  7  1  0  0  0  0
  6 22  1  0  0  0  0
  7  8  2  0  0  0  0
  7 23  1  0  0  0  0
  8  9  1  0  0  0  0
  8 24  1  0  0  0  0
  9 10  1  0  0  0  0
 10 11  2  0  0  0  0
 10 19  1  0  0  0  0
 11 12  1  0  0  0  0
 12 13  1  0  0  0  0
 12 25  1  0  0  0  0
 12 26  1  0  0  0  0
 13 14  1  0  0  0  0
 13 27  1  0  0  0  0
 13 28  1  0  0  0  0
 14 15  1  0  0  0  0
 14 19  2  0  0  0  0
 15 16  2  0  0  0  0
 15 29  1  0  0  0  0
 16 17  1  0  0  0  0
 16 30  1  0  0  0  0
 17 18  2  0  0  0  0
 17 31  1  0  0  0  0
 18 19  1  0  0  0  0
 18 32  1  0  0  0  0
M  END
$$$$
