
  --CCDC--092525    3D                              

 45 50  0  0  0  0  0  0  0  0999 V2000
    5.7319    1.5998   -2.7976 H      0
    6.2466    1.9164   -1.8948 C      0
    6.5443    1.0328   -1.3346 H      0
    7.1483    2.4435   -2.1986 H      0
    5.1580    3.0298   -0.8621 Si     0
    4.0748    2.1977    0.3380 C      0
    3.0951    1.2411    0.0110 C      0
    1.6475   -0.1773   -0.4715 Cr     0
    1.9467    1.3549   -1.8263 C      0
    2.1113    2.1979   -2.5717 O      0
    3.3764   -0.3060   -1.5978 C      0
    4.3351   -0.3971   -2.2029 O      0
   -0.1145    0.2867    0.0106 C      0
    0.4832    1.1652   -0.4603 H      0
    0.7679    0.0171    1.2524 C      0
    1.6422    0.6998    1.6704 H      0
    1.7058   -1.1600    1.1808 C      0
    2.8980   -1.1647    1.1933 H      0
    1.6852   -2.0564   -0.0324 C      0
    2.5728   -2.2621   -0.8020 H      0
    0.7323   -1.8081   -1.1811 C      0
    0.9940   -1.5278   -2.3152 H      0
   -0.0892   -0.6570   -1.1345 C      0
    0.5872   -0.0450   -1.8601 H      0
    4.2973    2.6757    2.0742 Si     0
    3.9905    4.4800    2.4524 C      0
    3.1996    4.8774    1.8199 H      0
    4.8903    5.0666    2.2787 H      0
    3.6948    4.6124    3.4909 H      0
    6.0347    2.3768    2.6974 C      0
    6.5042    3.3110    2.9992 H      0
    6.6494    1.9232    1.9220 H      0
    6.0255    1.7083    3.5563 H      0
    3.1702    1.7454    3.2403 C      0
    2.1487    2.1093    3.1620 H      0
    3.4957    1.8721    4.2701 H      0
    3.1685    0.6818    3.0172 H      0
    6.3973    4.1657   -0.0423 C      0
    6.9981    4.6739   -0.7933 H      0
    7.0718    3.6092    0.6034 H      0
    5.9037    4.9303    0.5511 H      0
    4.2877    4.1529   -2.0784 C      0
    3.2775    4.3825   -1.7439 H      0
    4.2322    3.6984   -3.0643 H      0
    4.8311    5.0909   -2.1808 H      0
  1  2  1
  2  3  1
  2  4  1
  2  5  1
  5  6  1
  6  7  4
  7  8  4
  8  9  1
  9 10  3
  8 11  1
 11 12  3
  8 13  1
 13 14  1
 13 15  4
  8 15  1
 15 16  1
 15 17  4
  8 17  1
 17 18  1
 17 19  4
  8 19  1
 19 20  1
 19 21  4
  8 21  1
 21 22  1
 21 23  4
 13 23  4
  8 23  1
 23 24  1
  6 25  1
 25 26  1
 26 27  1
 26 28  1
 26 29  1
 25 30  1
 30 31  1
 30 32  1
 30 33  1
 25 34  1
 34 35  1
 34 36  1
 34 37  1
  5 38  1
 38 39  1
 38 40  1
 38 41  1
  5 42  1
 42 43  1
 42 44  1
 42 45  1
M  END
$$$$
