
  --CCDC--092525    3D                              

 46 54  0  0  0  0  0  0  0  0999 V2000
   -0.1069    0.2566    0.1481 Cl     0
    1.2987    2.2014    0.1918 Ir     0
    2.0325    1.0395   -1.4027 C      0
    1.2082    1.9919   -1.8620 C      0
    0.4293    2.6517   -2.9343 C      0
    0.4579    2.8419   -4.2927 C      0
   -0.6441    3.4635   -4.8713 C      0
   -1.7504    3.8202   -4.1409 C      0
   -1.8171    3.5766   -2.7445 C      0
   -2.9308    3.7841   -1.9042 C      0
   -2.8571    3.3942   -0.5985 C      0
   -1.6992    2.8613   -0.0413 C      0
   -0.5206    2.7360   -0.7747 C      0
   -0.6639    3.0349   -2.1468 C      0
    2.2009    1.7022    1.9242 C      0
    2.6576    1.9423    3.3465 C      0
    0.9244    2.5342    2.0884 C      0
   -0.2624    2.1135    2.9277 C      0
    1.1075    3.8330    1.3059 C      0
    0.1097    4.9622    1.1647 C      0
    2.4456    3.7676    0.5811 C      0
    2.9511    4.7649   -0.4374 C      0
    3.1100    2.4425    0.9467 C      0
    4.3936    1.8982    0.3592 C      0
    2.6323    0.1765   -1.6722 H      0
    1.3051    2.5223   -4.8905 H      0
   -0.6348    3.6600   -5.9383 H      0
   -2.5956    4.2790   -4.6432 H      0
   -3.8430    4.2205   -2.2974 H      0
   -3.7342    3.5073    0.0301 H      0
   -1.7255    2.5634    0.9965 H      0
    3.7180    2.1842    3.3732 H      0
    2.4976    1.0564    3.9576 H      0
    2.1131    2.7691    3.7974 H      0
   -0.8952    1.4170    2.3819 H      0
   -0.8651    2.9761    3.2041 H      0
    0.0673    1.6239    3.8417 H      0
   -0.1050    5.1660    0.1180 H      0
    0.4984    5.8751    1.6111 H      0
   -0.8258    4.7148    1.6621 H      0
    2.6004    4.5088   -1.4350 H      0
    4.0388    4.7813   -0.4543 H      0
    2.6006    5.7677   -0.2021 H      0
    5.1765    1.8643    1.1139 H      0
    4.7401    2.5261   -0.4590 H      0
    4.2520    0.8896   -0.0225 H      0
  1  2  1
  2  3  1
  3  4  2
  2  4  1
  4  5  1
  5  6  4
  6  7  4
  7  8  4
  8  9  4
  9 10  4
 10 11  4
 11 12  4
 12 13  4
  2 13  1
 13 14  4
  5 14  4
  9 14  4
  2 15  1
 15 16  1
 15 17  4
  2 17  1
 17 18  1
 17 19  4
  2 19  1
 19 20  1
 19 21  4
  2 21  1
 21 22  1
 21 23  4
  2 23  1
 15 23  4
 23 24  1
  3 25  1
  6 26  1
  7 27  1
  8 28  1
 10 29  1
 11 30  1
 12 31  1
 16 32  1
 16 33  1
 16 34  1
 18 35  1
 18 36  1
 18 37  1
 20 38  1
 20 39  1
 20 40  1
 22 41  1
 22 42  1
 22 43  1
 24 44  1
 24 45  1
 24 46  1
M  END
$$$$
