
 OpenBabel09252515033D

 62 63  0  0  0  0  0  0  0  0999 V2000
    0.9415    0.0807    0.0073 C   0  0  0  0  0  0  0  0  0  0  0  0
    0.2348    1.9713    0.6561 Pt  0  0  0  0  0  0  0  0  0  0  0  0
    1.9658    2.8942   -0.1479 C   0  0  0  0  0  0  0  0  0  0  0  0
   -0.7646    2.2330   -1.1952 C   0  0  0  0  0  0  0  0  0  0  0  0
   -0.4552    3.8172    1.2896 N   0  0  0  0  0  0  0  0  0  0  0  0
   -1.2514    4.2251    2.7714 N   0  0  0  0  0  0  0  0  0  0  0  0
   -1.4411    5.9703    2.5185 C   0  0  0  0  0  0  0  0  0  0  0  0
   -2.0307    6.9459    3.4987 C   0  0  0  0  0  0  0  0  0  0  0  0
   -0.8562    7.6776    4.1740 C   0  0  0  0  0  0  0  0  0  0  0  0
    0.0311    8.2747    3.0761 C   0  0  0  0  0  0  0  0  0  0  0  0
   -0.8461    9.2623    2.3359 C   0  0  0  0  0  0  0  0  0  0  0  0
   -1.7280    8.6279    1.2762 C   0  0  0  0  0  0  0  0  0  0  0  0
   -1.0040    7.5276    0.5119 C   0  0  0  0  0  0  0  0  0  0  0  0
   -0.9498    6.2139    1.2897 C   0  0  0  0  0  0  0  0  0  0  0  0
   -0.3762    5.0321    0.6349 N   0  0  0  0  0  0  0  0  0  0  0  0
   -1.7493    0.9134    1.5776 P   0  0  0  0  0  4  0  0  0  0  0  0
   -1.3426   -0.7911    2.1050 C   0  0  0  0  0  0  0  0  0  0  0  0
   -2.3388    1.8738    3.0195 C   0  0  0  0  0  0  0  0  0  0  0  0
   -3.0607    0.8608    0.3023 C   0  0  0  0  0  0  0  0  0  0  0  0
    1.3803    1.6713    2.7780 P   0  0  0  0  0  4  0  0  0  0  0  0
    0.7354    0.1762    3.6134 C   0  0  0  0  0  0  0  0  0  0  0  0
    3.1754    1.4771    2.4801 C   0  0  0  0  0  0  0  0  0  0  0  0
    1.0927    3.1345    3.8387 C   0  0  0  0  0  0  0  0  0  0  0  0
    0.5848   -0.1128   -0.9828 H   0  0  0  0  0  0  0  0  0  0  0  0
    0.5848   -0.6799    0.6699 H   0  0  0  0  0  0  0  0  0  0  0  0
    2.0115    0.0807    0.0073 H   0  0  0  0  0  0  0  0  0  0  0  0
    2.3104    2.3327   -0.9910 H   0  0  0  0  0  0  0  0  0  0  0  0
    1.7280    3.8908   -0.4562 H   0  0  0  0  0  0  0  0  0  0  0  0
    2.7325    2.9249    0.5978 H   0  0  0  0  0  0  0  0  0  0  0  0
   -1.8142    2.3465   -1.0209 H   0  0  0  0  0  0  0  0  0  0  0  0
   -0.3875    3.1072   -1.6836 H   0  0  0  0  0  0  0  0  0  0  0  0
   -0.5965    1.3774   -1.8153 H   0  0  0  0  0  0  0  0  0  0  0  0
   -2.6762    7.6401    3.0024 H   0  0  0  0  0  0  0  0  0  0  0  0
   -2.6085    6.4243    4.2327 H   0  0  0  0  0  0  0  0  0  0  0  0
   -0.2920    6.9951    4.7747 H   0  0  0  0  0  0  0  0  0  0  0  0
   -1.2295    8.4587    4.8027 H   0  0  0  0  0  0  0  0  0  0  0  0
    0.4152    7.5192    2.4229 H   0  0  0  0  0  0  0  0  0  0  0  0
    0.8738    8.7736    3.5072 H   0  0  0  0  0  0  0  0  0  0  0  0
   -1.4990    9.7018    3.0608 H   0  0  0  0  0  0  0  0  0  0  0  0
   -0.2146    9.9837    1.8608 H   0  0  0  0  0  0  0  0  0  0  0  0
   -2.5699    8.1879    1.7686 H   0  0  0  0  0  0  0  0  0  0  0  0
   -2.0344    9.3844    0.5843 H   0  0  0  0  0  0  0  0  0  0  0  0
   -1.5473    7.3481   -0.3922 H   0  0  0  0  0  0  0  0  0  0  0  0
   -0.0034    7.8497    0.3121 H   0  0  0  0  0  0  0  0  0  0  0  0
   -0.5759   -0.7604    2.8507 H   0  0  0  0  0  0  0  0  0  0  0  0
   -2.2163   -1.2569    2.5108 H   0  0  0  0  0  0  0  0  0  0  0  0
   -0.9980   -1.3527    1.2619 H   0  0  0  0  0  0  0  0  0  0  0  0
   -2.5765    2.8704    2.7112 H   0  0  0  0  0  0  0  0  0  0  0  0
   -3.2124    1.4080    3.4253 H   0  0  0  0  0  0  0  0  0  0  0  0
   -1.5720    1.9045    3.7652 H   0  0  0  0  0  0  0  0  0  0  0  0
   -3.2985    1.8575   -0.0061 H   0  0  0  0  0  0  0  0  0  0  0  0
   -2.7160    0.2993   -0.5408 H   0  0  0  0  0  0  0  0  0  0  0  0
   -3.9343    0.3950    0.7081 H   0  0  0  0  0  0  0  0  0  0  0  0
    0.9036   -0.6794    2.9932 H   0  0  0  0  0  0  0  0  0  0  0  0
    1.2398    0.0441    4.5477 H   0  0  0  0  0  0  0  0  0  0  0  0
   -0.3142    0.2897    3.7876 H   0  0  0  0  0  0  0  0  0  0  0  0
    3.5525    2.3513    1.9917 H   0  0  0  0  0  0  0  0  0  0  0  0
    3.6798    1.3450    3.4144 H   0  0  0  0  0  0  0  0  0  0  0  0
    3.3435    0.6216    1.8599 H   0  0  0  0  0  0  0  0  0  0  0  0
    1.4698    4.0087    3.3503 H   0  0  0  0  0  0  0  0  0  0  0  0
    0.0431    3.2480    4.0129 H   0  0  0  0  0  0  0  0  0  0  0  0
    1.5971    3.0024    4.7731 H   0  0  0  0  0  0  0  0  0  0  0  0
  1  2  1  0  0  0  0
  1 24  1  0  0  0  0
  1 25  1  0  0  0  0
  1 26  1  0  0  0  0
  2  3  1  0  0  0  0
  2  4  1  0  0  0  0
  2  5  1  0  0  0  0
  2 16  1  0  0  0  0
  2 20  1  0  0  0  0
  3 27  1  0  0  0  0
  3 28  1  0  0  0  0
  3 29  1  0  0  0  0
  4 30  1  0  0  0  0
  4 31  1  0  0  0  0
  4 32  1  0  0  0  0
  5  6  1  0  0  0  0
  5 15  1  0  0  0  0
  6  7  2  0  0  0  0
  7  8  1  0  0  0  0
  7 14  1  0  0  0  0
  8  9  1  0  0  0  0
  8 33  1  0  0  0  0
  8 34  1  0  0  0  0
  9 10  1  0  0  0  0
  9 35  1  0  0  0  0
  9 36  1  0  0  0  0
 10 11  1  0  0  0  0
 10 37  1  0  0  0  0
 10 38  1  0  0  0  0
 11 12  1  0  0  0  0
 11 39  1  0  0  0  0
 11 40  1  0  0  0  0
 12 13  1  0  0  0  0
 12 41  1  0  0  0  0
 12 42  1  0  0  0  0
 13 14  1  0  0  0  0
 13 43  1  0  0  0  0
 13 44  1  0  0  0  0
 14 15  2  0  0  0  0
 16 17  1  0  0  0  0
 16 18  1  0  0  0  0
 16 19  1  0  0  0  0
 17 45  1  0  0  0  0
 17 46  1  0  0  0  0
 17 47  1  0  0  0  0
 18 48  1  0  0  0  0
 18 49  1  0  0  0  0
 18 50  1  0  0  0  0
 19 51  1  0  0  0  0
 19 52  1  0  0  0  0
 19 53  1  0  0  0  0
 20 21  1  0  0  0  0
 20 22  1  0  0  0  0
 20 23  1  0  0  0  0
 21 54  1  0  0  0  0
 21 55  1  0  0  0  0
 21 56  1  0  0  0  0
 22 57  1  0  0  0  0
 22 58  1  0  0  0  0
 22 59  1  0  0  0  0
 23 60  1  0  0  0  0
 23 61  1  0  0  0  0
 23 62  1  0  0  0  0
M  END
$$$$
