
 OpenBabel09252517333D

 32 34  0  0  0  0  0  0  0  0999 V2000
    1.0641   -0.0641   -0.0422 C   0  0  0  0  0  0  0  0  0  0  0  0
    0.5574   -0.4138   -1.4319 C   0  0  0  0  0  0  0  0  0  0  0  0
    1.0641   -1.7922   -1.8240 C   0  0  0  0  0  0  0  0  0  0  0  0
    0.1801   -2.7868   -2.1069 C   0  0  0  0  0  0  0  0  0  0  0  0
   -0.9626   -0.4138   -1.4319 C   0  0  0  0  0  0  0  0  0  0  0  0
   -1.4526    0.9193   -1.0528 N   0  0  0  0  0  0  0  0  0  0  0  0
   -1.1455    1.4112    0.0781 N   0  0  0  0  0  0  0  0  0  0  0  0
   -0.4149    0.7506    0.8812 N   0  0  0  0  0  2  0  0  0  0  0  0
   -1.4692   -0.7635   -2.8217 C   0  0  0  0  0  0  0  0  0  0  0  0
   -1.4773   -1.9796   -3.3413 C   0  0  0  0  0  0  0  0  0  0  0  0
   -1.9696   -1.8233   -4.7346 C   0  0  0  0  0  0  0  0  0  0  0  0
   -2.2065   -0.5318   -4.8922 C   0  0  0  0  0  0  0  0  0  0  0  0
   -2.7359    0.1235   -6.1573 C   0  0  0  0  0  0  0  0  0  0  0  0
   -1.9020    0.1051   -3.7498 Fe  0  0  0  0  0  0  0  0  0  0  0  0
   -1.2776    2.0335   -4.2163 C   0  0  0  0  0  0  0  0  0  0  0  0
   -0.9119    3.1629   -4.4894 O   0  0  0  0  0  0  0  0  0  0  0  0
   -3.0684   -1.5962   -3.4822 C   0  0  0  0  0  0  0  0  0  0  0  0
   -3.7515   -2.5925   -3.3255 O   0  0  0  0  0  0  0  0  0  0  0  0
   -3.5458   -0.4211   -2.5890 C   0  0  0  0  0  0  0  0  0  0  0  0
   -4.5084   -0.7293   -1.9092 O   0  0  0  0  0  0  0  0  0  0  0  0
    0.7074   -0.7883    0.6602 H   0  0  0  0  0  0  0  0  0  0  0  0
    0.7074    0.9062    0.2338 H   0  0  0  0  0  0  0  0  0  0  0  0
    2.1341   -0.0641   -0.0422 H   0  0  0  0  0  0  0  0  0  0  0  0
    0.9141    0.3104   -2.1343 H   0  0  0  0  0  0  0  0  0  0  0  0
    2.1161   -1.9803   -1.8775 H   0  0  0  0  0  0  0  0  0  0  0  0
    0.5367   -3.7571   -2.3828 H   0  0  0  0  0  0  0  0  0  0  0  0
   -0.8719   -2.5987   -2.0534 H   0  0  0  0  0  0  0  0  0  0  0  0
   -1.3192   -1.1380   -0.7296 H   0  0  0  0  0  0  0  0  0  0  0  0
   -1.4855    2.3362    0.3412 H   0  0  0  0  0  0  0  0  0  0  0  0
   -3.6639    0.6118   -5.9446 H   0  0  0  0  0  0  0  0  0  0  0  0
   -2.0268    0.8431   -6.5098 H   0  0  0  0  0  0  0  0  0  0  0  0
   -2.8896   -0.6231   -6.9082 H   0  0  0  0  0  0  0  0  0  0  0  0
  1  2  1  0  0  0  0
  1 21  1  0  0  0  0
  1 22  1  0  0  0  0
  1 23  1  0  0  0  0
  2  3  1  0  0  0  0
  2  5  1  0  0  0  0
  2 24  1  0  0  0  0
  3  4  2  0  0  0  0
  3 25  1  0  0  0  0
  4 26  1  0  0  0  0
  4 27  1  0  0  0  0
  5  6  1  0  0  0  0
  5  9  1  0  0  0  0
  5 28  1  0  0  0  0
  6  7  2  0  0  0  0
  7  8  2  0  0  0  0
  7 29  1  0  0  0  0
  9 10  2  0  0  0  0
  9 14  1  0  0  0  0
 10 11  1  0  0  0  0
 10 14  1  0  0  0  0
 11 12  2  0  0  0  0
 11 14  1  0  0  0  0
 12 13  1  0  0  0  0
 12 14  1  0  0  0  0
 13 30  1  0  0  0  0
 13 31  1  0  0  0  0
 13 32  1  0  0  0  0
 14 15  1  0  0  0  0
 14 17  1  0  0  0  0
 14 19  1  0  0  0  0
 15 16  3  0  0  0  0
 17 18  3  0  0  0  0
 19 20  3  0  0  0  0
M  END
$$$$
