
  --CCDC--092525    3D                              

114121  0  0  0  0  0  0  0  0999 V2000
    0.6519   -0.1216   -0.5456 H      0
    1.0763    0.8739   -0.4664 C      0
    1.1338    1.6926   -1.5802 C      0
    0.7681    1.3227   -2.5324 H      0
    1.6605    2.9799   -1.5039 C      0
    1.7614    3.8139   -2.7706 C      0
    2.1973    4.7942   -2.5255 H      0
    2.6665    3.1239   -3.7906 C      0
    2.7563    3.7218   -4.6952 H      0
    2.2655    2.1507   -4.0661 H      0
    3.6643    2.9750   -3.3833 H      0
    0.3840    4.0379   -3.3912 C      0
   -0.1227    3.0897   -3.5579 H      0
    0.4724    4.5482   -4.3481 H      0
   -0.2384    4.6462   -2.7385 H      0
    2.0981    3.4380   -0.2489 C      0
    2.6297    4.7537   -0.1579 N      0
    3.9942    4.9707   -0.4996 C      0
    4.5058    6.2531   -0.4376 C      0
    5.9131    6.2406   -0.8591 C      0
    6.9484    7.1313   -1.0372 C      0
    6.7968    8.1856   -0.8305 H      0
    8.1860    6.6832   -1.4857 C      0
    8.9846    7.4044   -1.6245 H      0
    8.4318    5.3660   -1.7586 C      0
    9.4125    5.0577   -2.1055 H      0
    7.4077    4.4059   -1.5891 C      0
    7.5113    3.0153   -1.8235 C      0
    8.4493    2.5912   -2.1662 H      0
    6.4294    2.2049   -1.6170 C      0
    6.5310    1.1398   -1.7976 H      0
    5.2031    2.6975   -1.1841 C      0
    4.3696    2.0192   -1.0343 H      0
    5.0446    4.0440   -0.9427 C      0
    6.1598    4.8824   -1.1433 C      0
    3.6587    7.3205   -0.0228 N      0
    4.1843    8.6415   -0.0167 C      0
    4.3693    9.2949   -1.2493 C      0
    3.9864    8.6821   -2.5873 C      0
    3.5795    7.6739   -2.4216 H      0
    5.2084    8.5697   -3.4977 C      0
    4.9095    8.5454   -4.5436 H      0
    5.7671    7.6609   -3.2837 H      0
    5.8743    9.4183   -3.3553 H      0
    2.9166    9.5198   -3.2856 C      0
    2.6387    9.0725   -4.2377 H      0
    3.2789   10.5274   -3.4778 H      0
    2.0213    9.5922   -2.6717 H      0
    4.9347   10.5673   -1.2331 C      0
    5.0870   11.0938   -2.1695 H      0
    5.3066   11.1709   -0.0458 C      0
    5.7473   12.1623   -0.0577 H      0
    5.1210   10.5102    1.1562 C      0
    5.4350   11.0021    2.0703 H      0
    4.5547    9.2341    1.2024 C      0
    4.3570    8.5084    2.5242 C      0
    3.6487    7.6818    2.3600 H      0
    3.7843    9.4195    3.6093 C      0
    3.3990   10.3405    3.1771 H      0
    4.5517    9.6817    4.3349 H      0
    2.9720    8.9265    4.1390 H      0
    5.6804    7.9180    3.0080 C      0
    6.0869    7.2294    2.2701 H      0
    5.5426    7.3737    3.9398 H      0
    6.4138    8.7034    3.1786 H      0
    1.1183    6.8115    0.6010 Eu     0
    0.4689    7.2573   -1.9398 N      0
    0.1288    7.4841   -3.2095 C      0
   -0.3073    7.7748   -4.8373 S      0
    1.5935    9.2685    1.4974 O      0
    1.6264   10.2860    0.5284 C      0
    1.9950    9.9191   -0.4253 H      0
    2.2622   11.1077    0.8518 H      0
    0.6264   10.6807    0.3614 H      0
    0.7532    9.7560    2.5220 C      0
    1.2577    9.7222    3.4956 H      0
    0.5419   10.8138    2.3222 H      0
   -0.5407    8.9917    2.5786 C      0
   -0.4448    8.1649    3.2935 H      0
   -1.3525    9.6309    2.9471 H      0
   -0.8337    8.4580    1.3093 O      0
   -2.1575    7.9978    1.2348 C      0
   -2.3937    7.6563    0.2295 H      0
   -2.8562    8.7889    1.4988 H      0
   -2.3137    7.1676    1.9208 H      0
   -0.8468    5.0451    0.7895 O      0
   -1.3451    4.3885   -0.3470 C      0
   -2.3436    3.9991   -0.1603 H      0
   -0.7077    3.5541   -0.6262 H      0
   -1.4016    5.0709   -1.1926 H      0
   -0.7840    4.2441    1.9541 C      0
   -1.7751    3.8216    2.1611 H      0
   -0.1188    3.3917    1.7845 H      0
   -0.3130    5.0521    3.1432 C      0
   -1.0070    5.8814    3.3275 H      0
   -0.3268    4.4276    4.0449 H      0
    0.9937    5.5553    2.9276 O      0
    1.5720    6.1267    4.0713 C      0
    1.5334    5.4322    4.9080 H      0
    1.0441    7.0333    4.3593 H      0
    2.6139    6.3821    3.8908 H      0
    2.1203    2.5956    0.8780 C      0
    2.7296    3.0131    2.2070 C      0
    2.7888    4.1107    2.2355 H      0
    4.1459    2.4587    2.3485 C      0
    4.7812    2.8082    1.5375 H      0
    4.5908    2.7770    3.2891 H      0
    4.1376    1.3710    2.3293 H      0
    1.8983    2.5244    3.3937 C      0
    1.9714    1.4438    3.4961 H      0
    0.8488    2.7788    3.2727 H      0
    2.2492    2.9743    4.3200 H      0
    1.5749    1.3195    0.7451 C      0
    1.5488    0.6563    1.6030 H      0
  1  2  1
  2  3  4
  3  4  1
  3  5  4
  5  6  1
  6  7  1
  6  8  1
  8  9  1
  8 10  1
  8 11  1
  6 12  1
 12 13  1
 12 14  1
 12 15  1
  5 16  4
 16 17  1
 17 18  1
 18 19  2
 19 20  1
 20 21  4
 21 22  1
 21 23  4
 23 24  1
 23 25  4
 25 26  1
 25 27  4
 27 28  4
 28 29  1
 28 30  4
 30 31  1
 30 32  4
 32 33  1
 32 34  4
 18 34  1
 34 35  4
 20 35  4
 27 35  4
 19 36  1
 36 37  1
 37 38  4
 38 39  1
 39 40  1
 39 41  1
 41 42  1
 41 43  1
 41 44  1
 39 45  1
 45 46  1
 45 47  1
 45 48  1
 38 49  4
 49 50  1
 49 51  4
 51 52  1
 51 53  4
 53 54  1
 53 55  4
 37 55  4
 55 56  1
 56 57  1
 56 58  1
 58 59  1
 58 60  1
 58 61  1
 56 62  1
 62 63  1
 62 64  1
 62 65  1
 36 66  1
 17 66  1
 66 67  1
 67 68  4
 68 69  4
 66 70  1
 70 71  1
 71 72  1
 71 73  1
 71 74  1
 70 75  1
 75 76  1
 75 77  1
 75 78  1
 78 79  1
 78 80  1
 78 81  1
 66 81  1
 81 82  1
 82 83  1
 82 84  1
 82 85  1
 66 86  1
 86 87  1
 87 88  1
 87 89  1
 87 90  1
 86 91  1
 91 92  1
 91 93  1
 91 94  1
 94 95  1
 94 96  1
 94 97  1
 66 97  1
 97 98  1
 98 99  1
 98100  1
 98101  1
 16102  4
102103  1
103104  1
103105  1
105106  1
105107  1
105108  1
103109  1
109110  1
109111  1
109112  1
102113  4
  2113  4
113114  1
M  END
$$$$
