
  --CCDC--081225    3D                              

 75 87  0  0  0  0  0  0  0  0999 V2000
    1.9855    3.8186   -1.8163 Cl     0
    1.7949    2.9935    0.7888 Zr     0
    3.5998    5.0113    0.3960 Cl     0
    0.7883    4.4414    2.3626 C      0
    0.6462    5.0804    0.8800 C      0
   -0.2408    3.9772    0.1255 C      0
   -0.6762    3.9949   -1.1872 C      0
   -1.4204    2.9130   -1.6521 C      0
   -1.7237    1.8395   -0.8309 C      0
   -1.2912    1.7889    0.4929 C      0
   -0.5430    2.8422    0.9873 C      0
    0.1488    2.9500    2.4427 C      0
    1.0823    1.4902    3.1985 Si     0
    1.2900    1.8848    5.0243 C      0
   -0.1072    0.0358    3.1523 C      0
    3.1896    0.7738    2.3166 Si     0
    4.2420    1.0413    3.8888 C      0
    2.8466   -1.1140    2.4353 C      0
    3.8627    1.8442    0.7852 C      0
    3.4985    2.4068    2.1913 C      0
    2.9295    0.9745    1.6159 C      0
    1.9949    0.7410    0.2938 C      0
    1.0427   -0.0996   -0.2490 C      0
    0.9375   -0.0651   -1.6430 C      0
    1.8210    0.6686   -2.4342 C      0
    2.8701    1.4103   -1.8810 C      0
    2.9069    1.4330   -0.4982 C      0
    4.5652    0.2563    0.7745 Si     0
    4.1948   -1.2360   -0.3174 C      0
    5.9068   -0.4336    1.9090 C      0
    5.7913    1.2354   -0.2991 C      0
    1.2008    6.7775    0.2863 Si     0
    1.8454    6.9069   -1.4719 C      0
    2.3127    7.6885    1.4949 C      0
   -0.3572    7.8188    0.2608 C      0
    1.6268    4.7294    3.0155 H      0
   -0.4487    4.8333   -1.8373 H      0
   -1.7715    2.9119   -2.6788 H      0
   -2.3103    1.0177   -1.2283 H      0
   -1.5330    0.9386    1.1219 H      0
    1.7160    1.0366    5.5562 H      0
    0.3306    2.1229    5.4790 H      0
    1.9512    2.7378    5.1618 H      0
   -0.2766   -0.2924    2.1290 H      0
   -1.0679    0.3096    3.5834 H      0
    0.2900   -0.8054    3.7166 H      0
    5.2550    1.3629    3.6552 H      0
    4.3164    0.1068    4.4411 H      0
    3.8046    1.7723    4.5687 H      0
    3.7155   -1.7257    2.6601 H      0
    2.3936   -1.5014    1.5233 H      0
    2.1363   -1.2929    3.2397 H      0
    4.4910    2.8831    2.1448 H      0
    0.4277   -0.7517    0.3623 H      0
    0.1586   -0.6461   -2.1257 H      0
    1.7039    0.6464   -3.5126 H      0
    3.6184    1.9039   -2.4930 H      0
    3.9494   -2.1146    0.2741 H      0
    5.0611   -1.4811   -0.9283 H      0
    3.3610   -1.0389   -0.9873 H      0
    5.5078   -0.9651    2.7668 H      0
    6.5338    0.3717    2.2850 H      0
    6.5493   -1.1189    1.3602 H      0
    5.3458    1.6380   -1.2077 H      0
    6.5922    0.5710   -0.6167 H      0
    6.2645    2.0511    0.2478 H      0
    1.2323    6.3135   -2.1470 H      0
    2.8715    6.5612   -1.5610 H      0
    1.8128    7.9397   -1.8125 H      0
    2.0633    7.4177    2.5187 H      0
    2.1793    8.7636    1.3936 H      0
    3.3654    7.4716    1.3395 H      0
   -0.1356    8.8369   -0.0526 H      0
   -0.8101    7.8595    1.2492 H      0
   -1.0878    7.4030   -0.4299 H      0
  1  2  1
  2  3  1
  2  4  1
  4  5  1
  2  5  1
  5  6  1
  2  6  1
  6  7  4
  7  8  4
  8  9  4
  9 10  4
 10 11  4
  2 11  1
  6 11  4
 11 12  1
  2 12  1
  4 12  1
 12 13  1
 13 14  1
 13 15  1
 13 16  1
 16 17  1
 16 18  1
 16 19  1
  2 19  1
 19 20  1
  2 20  1
 20 21  1
  2 21  1
 21 22  1
  2 22  1
 22 23  4
 23 24  4
 24 25  4
 25 26  4
 26 27  4
  2 27  1
 19 27  1
 22 27  4
 21 28  1
 28 29  1
 28 30  1
 28 31  1
  5 32  1
 32 33  1
 32 34  1
 32 35  1
  4 36  1
  7 37  1
  8 38  1
  9 39  1
 10 40  1
 14 41  1
 14 42  1
 14 43  1
 15 44  1
 15 45  1
 15 46  1
 17 47  1
 17 48  1
 17 49  1
 18 50  1
 18 51  1
 18 52  1
 20 53  1
 23 54  1
 24 55  1
 25 56  1
 26 57  1
 29 58  1
 29 59  1
 29 60  1
 30 61  1
 30 62  1
 30 63  1
 31 64  1
 31 65  1
 31 66  1
 33 67  1
 33 68  1
 33 69  1
 34 70  1
 34 71  1
 34 72  1
 35 73  1
 35 74  1
 35 75  1
M  END
$$$$
