
 OpenBabel09252513033D

 23 24  0  0  1  0  0  0  0  0999 V2000
    9.9464   -1.1469   -7.5591 H   0  0  0  0  0  0  0  0  0  0  0  0
    9.3500   -0.5457   -6.8825 C   0  0  0  0  0  3  0  0  0  0  0  0
    9.8704   -0.2155   -5.5653 C   0  0  0  0  0  3  0  0  0  0  0  0
   10.8597   -0.5646   -5.2897 H   0  0  0  0  0  0  0  0  0  0  0  0
    8.9630    0.2354   -4.5150 C   0  0  0  0  0  3  0  0  0  0  0  0
    9.3303    0.2420   -3.4929 H   0  0  0  0  0  0  0  0  0  0  0  0
    7.5041    0.2641   -4.7537 C   0  0  0  0  0  3  0  0  0  0  0  0
    6.4831   -0.3494   -3.4413 S   0  0  0  0  0  0  0  0  0  0  0  0
    6.3042   -1.7779   -3.6551 O   0  0  0  0  0  0  0  0  0  0  0  0
    7.0750    0.0959   -2.1868 O   0  0  0  0  0  0  0  0  0  0  0  0
    4.8649    0.4217   -3.5317 C   0  0  2  0  0  0  0  0  0  0  0  0
    4.1712   -0.0320   -2.8142 H   0  0  0  0  0  0  0  0  0  0  0  0
    4.3352    0.3555   -4.9049 N   0  0  0  0  0  0  0  0  0  0  0  0
    3.7335   -0.3463   -5.3175 H   0  0  0  0  0  0  0  0  0  0  0  0
    3.9217    1.6519   -4.8830 C   0  0  0  0  0  0  0  0  0  0  0  0
    3.1299    2.2274   -5.5853 O   0  0  0  0  0  0  0  0  0  0  0  0
    4.7801    1.9470   -3.6363 C   0  0  0  0  0  0  0  0  0  0  0  0
    4.2347    2.4300   -2.8217 H   0  0  0  0  0  0  0  0  0  0  0  0
    5.7026    2.4902   -3.8510 H   0  0  0  0  0  0  0  0  0  0  0  0
    7.0589    0.1986   -6.1529 C   0  0  0  0  0  3  0  0  0  0  0  0
    6.2085    0.7809   -6.4834 H   0  0  0  0  0  0  0  0  0  0  0  0
    7.9502   -0.3105   -7.1846 C   0  0  0  0  0  3  0  0  0  0  0  0
    7.5581   -0.5492   -8.1660 H   0  0  0  0  0  0  0  0  0  0  0  0
  1  2  1  0  0  0  0
  2  3  1  0  0  0  0
  2 22  1  0  0  0  0
  3  4  1  0  0  0  0
  3  5  1  0  0  0  0
  5  6  1  0  0  0  0
  5  7  1  0  0  0  0
  7  8  1  0  0  0  0
  7 20  1  0  0  0  0
  8  9  2  0  0  0  0
  8 10  2  0  0  0  0
 11 13  1  0  0  0  0
 11 17  1  0  0  0  0
 11 12  1  1  0  0  0
 11  8  1  0  0  0  0
 13 14  1  0  0  0  0
 13 15  1  0  0  0  0
 15 16  2  0  0  0  0
 15 17  1  0  0  0  0
 17 18  1  0  0  0  0
 17 19  1  0  0  0  0
 20 21  1  0  0  0  0
 20 22  1  0  0  0  0
 22 23  1  0  0  0  0
M  END
$$$$
