
 OpenBabel09252517123D

 29 30  0  0  0  0  0  0  0  0999 V2000
    0.9038   -0.0243    0.0127 Cl  0  0  0  0  0  0  0  0  0  0  0  0
    3.2838   -0.0243    0.0127 Au  0  0  0  0  0  0  0  0  0  0  0  0
    5.1812   -0.0243    0.0127 C   0  0  0  0  0  0  0  0  0  0  0  0
    5.9162   -0.3349   -1.2219 N   0  0  0  0  0  0  0  0  0  0  0  0
    5.6091    0.2040   -2.5597 C   0  0  0  0  0  0  0  0  0  0  0  0
    5.9450   -0.9611   -3.4489 C   0  0  0  0  0  0  0  0  0  0  0  0
    7.2905   -1.4776   -2.8558 C   0  0  0  0  0  0  0  0  0  0  0  0
    7.1373   -1.2164   -1.3551 C   0  0  0  0  0  0  0  0  0  0  0  0
    5.9162    0.2862    1.2473 N   0  0  0  0  0  0  0  0  0  0  0  0
    5.6295   -0.2386    2.5951 C   0  0  0  0  0  0  0  0  0  0  0  0
    5.8831    0.9661    3.4584 C   0  0  0  0  0  0  0  0  0  0  0  0
    7.1998    1.5513    2.8646 C   0  0  0  0  0  0  0  0  0  0  0  0
    7.0786    1.2453    1.3695 C   0  0  0  0  0  0  0  0  0  0  0  0
    6.1453    1.0986   -2.7987 H   0  0  0  0  0  0  0  0  0  0  0  0
    4.5766    0.4723   -2.6434 H   0  0  0  0  0  0  0  0  0  0  0  0
    5.1797   -1.7085   -3.4720 H   0  0  0  0  0  0  0  0  0  0  0  0
    6.0676   -0.6471   -4.4644 H   0  0  0  0  0  0  0  0  0  0  0  0
    7.4819   -2.5051   -3.0846 H   0  0  0  0  0  0  0  0  0  0  0  0
    8.1200   -0.9335   -3.2568 H   0  0  0  0  0  0  0  0  0  0  0  0
    7.0325   -2.1265   -0.8022 H   0  0  0  0  0  0  0  0  0  0  0  0
    8.0027   -0.7172   -0.9720 H   0  0  0  0  0  0  0  0  0  0  0  0
    6.2179   -1.0920    2.8606 H   0  0  0  0  0  0  0  0  0  0  0  0
    4.6150   -0.5689    2.6763 H   0  0  0  0  0  0  0  0  0  0  0  0
    5.0725    1.6645    3.4565 H   0  0  0  0  0  0  0  0  0  0  0  0
    6.0146    0.6848    4.4823 H   0  0  0  0  0  0  0  0  0  0  0  0
    7.3245    2.5941    3.0698 H   0  0  0  0  0  0  0  0  0  0  0  0
    8.0575    1.0700    3.2860 H   0  0  0  0  0  0  0  0  0  0  0  0
    6.9229    2.1336    0.7935 H   0  0  0  0  0  0  0  0  0  0  0  0
    7.9773    0.7922    1.0063 H   0  0  0  0  0  0  0  0  0  0  0  0
  1  2  1  0  0  0  0
  2  3  2  0  0  0  0
  3  4  1  0  0  0  0
  3  9  1  0  0  0  0
  4  5  1  0  0  0  0
  4  8  1  0  0  0  0
  5  6  1  0  0  0  0
  5 14  1  0  0  0  0
  5 15  1  0  0  0  0
  6  7  1  0  0  0  0
  6 16  1  0  0  0  0
  6 17  1  0  0  0  0
  7  8  1  0  0  0  0
  7 18  1  0  0  0  0
  7 19  1  0  0  0  0
  8 20  1  0  0  0  0
  8 21  1  0  0  0  0
  9 10  1  0  0  0  0
  9 13  1  0  0  0  0
 10 11  1  0  0  0  0
 10 22  1  0  0  0  0
 10 23  1  0  0  0  0
 11 12  1  0  0  0  0
 11 24  1  0  0  0  0
 11 25  1  0  0  0  0
 12 13  1  0  0  0  0
 12 26  1  0  0  0  0
 12 27  1  0  0  0  0
 13 28  1  0  0  0  0
 13 29  1  0  0  0  0
M  END
$$$$
