
     RDKit          3D

  0  0  0  0  0  0  0  0  0  0999 V3000
M  V30 BEGIN CTAB
M  V30 COUNTS 47 52 0 0 0
M  V30 BEGIN ATOM
M  V30 1 C -1.767838 0.651804 -2.854001 0
M  V30 2 C -2.352041 0.037920 -1.645461 0
M  V30 3 N -2.605396 -0.706616 -0.626176 0
M  V30 4 C -3.182401 -1.266551 0.491155 0
M  V30 5 C -2.377180 -1.452123 1.694279 0
M  V30 6 C -1.311431 -2.553268 1.499261 0
M  V30 7 N -0.240019 -1.917686 0.911413 0
M  V30 8 C 0.978983 -1.719761 0.570164 0
M  V30 9 C 2.055407 -0.948859 -0.094856 0
M  V30 10 C 1.778297 -0.206033 -1.261407 0
M  V30 11 O 0.437870 -0.390612 -1.551490 0
M  V30 12 Cu -0.686355 -0.426962 -0.242532 0 VAL=4
M  V30 13 O -0.935756 1.158802 0.830278 0
M  V30 14 C -2.076548 1.852357 0.251959 0
M  V30 15 C -2.429617 3.028793 0.940972 0
M  V30 16 C -3.482707 3.714763 0.393323 0
M  V30 17 C -4.211658 3.392128 -0.722031 0
M  V30 18 C -3.842948 2.245531 -1.359907 0
M  V30 19 C -2.794163 1.373910 -0.977542 0
M  V30 20 C 2.737454 0.542694 -1.924331 0
M  V30 21 C 3.959054 0.464133 -1.305055 0
M  V30 22 C 4.298916 -0.229032 -0.180850 0
M  V30 23 C 5.576430 -0.205813 0.327011 0
M  V30 24 C 5.921070 -0.896861 1.459693 0
M  V30 25 C 4.959558 -1.637104 2.109775 0
M  V30 26 C 3.681970 -1.653800 1.592370 0
M  V30 27 C 3.340574 -0.961896 0.458821 0
M  V30 28 H -0.751105 0.954298 -2.891010 0
M  V30 29 H -2.489707 1.264904 -3.425582 0
M  V30 30 H -1.742219 -0.286764 -3.572800 0
M  V30 31 H -4.154180 -0.720538 0.712773 0
M  V30 32 H -3.553259 -2.285675 0.186147 0
M  V30 33 H -1.855794 -0.523200 1.979732 0
M  V30 34 H -3.001615 -1.729015 2.551509 0
M  V30 35 H -1.135620 -2.910761 2.530539 0
M  V30 36 H -1.816677 -3.338322 0.891908 0
M  V30 37 H 1.514001 -2.594337 0.870431 0
M  V30 38 H -1.875804 3.280339 1.793983 0
M  V30 39 H -3.771452 4.617500 0.903141 0
M  V30 40 H -5.032542 3.904269 -1.174527 0
M  V30 41 H -4.293227 1.880701 -2.306210 0
M  V30 42 H 2.411859 1.059728 -2.795128 0
M  V30 43 H 4.729439 1.031241 -1.785408 0
M  V30 44 H 6.294935 0.389701 -0.218898 0
M  V30 45 H 6.930141 -0.869735 1.848063 0
M  V30 46 H 5.203626 -2.196004 3.011566 0
M  V30 47 H 2.959675 -2.218186 2.104934 0
M  V30 END ATOM
M  V30 BEGIN BOND
M  V30 1 1 1 2
M  V30 2 2 2 3
M  V30 3 1 3 4
M  V30 4 1 4 5
M  V30 5 1 5 6
M  V30 6 1 6 7
M  V30 7 2 7 8
M  V30 8 1 8 9
M  V30 9 2 9 10
M  V30 10 1 10 11
M  V30 11 1 11 12
M  V30 12 1 12 13
M  V30 13 1 13 14
M  V30 14 2 14 15
M  V30 15 1 15 16
M  V30 16 2 16 17
M  V30 17 1 17 18
M  V30 18 2 18 19
M  V30 19 1 10 20
M  V30 20 2 20 21
M  V30 21 1 21 22
M  V30 22 2 22 23
M  V30 23 1 23 24
M  V30 24 2 24 25
M  V30 25 1 25 26
M  V30 26 2 26 27
M  V30 27 1 19 2
M  V30 28 1 27 22
M  V30 29 9 3 12
M  V30 30 1 19 14
M  V30 31 9 7 12
M  V30 32 1 27 9
M  V30 33 1 1 28
M  V30 34 1 1 29
M  V30 35 1 1 30
M  V30 36 1 4 31
M  V30 37 1 4 32
M  V30 38 1 5 33
M  V30 39 1 5 34
M  V30 40 1 6 35
M  V30 41 1 6 36
M  V30 42 1 8 37
M  V30 43 1 15 38
M  V30 44 1 16 39
M  V30 45 1 17 40
M  V30 46 1 18 41
M  V30 47 1 20 42
M  V30 48 1 21 43
M  V30 49 1 23 44
M  V30 50 1 24 45
M  V30 51 1 25 46
M  V30 52 1 26 47
M  V30 END BOND
M  V30 END CTAB
M  END
