
 OpenBabel09252514293D

 80 84  0  0  0  0  0  0  0  0999 V2000
    0.9091    0.0413   -0.0052 Cl  0  0  0  0  0  0  0  0  0  0  0  0
    3.3891    0.0413   -0.0052 Ru  0  0  0  0  0  0  0  0  0  0  0  0
    4.3467   -0.6608    0.5229 C   0  0  0  0  0  0  0  0  0  0  0  0
    5.4853    0.0099    1.1506 C   0  0  0  0  0  0  0  0  0  0  0  0
    6.5347   -0.7070    1.7293 C   0  0  0  0  0  0  0  0  0  0  0  0
    7.5804   -0.0355    2.2979 C   0  0  0  0  0  0  0  0  0  0  0  0
    7.6085    1.3531    2.3191 C   0  0  0  0  0  0  0  0  0  0  0  0
    6.5869    2.0864    1.7569 C   0  0  0  0  0  0  0  0  0  0  0  0
    5.5127    1.4225    1.1657 C   0  0  0  0  0  0  0  0  0  0  0  0
    4.3942    2.1467    0.5491 C   0  0  0  0  0  0  0  0  0  0  0  0
    3.7367    2.8703    1.7129 C   0  0  0  0  0  0  0  0  0  0  0  0
    3.3891    1.4365   -0.0052 N   0  0  0  0  0  0  0  0  0  0  0  0
    3.1514    2.3724   -1.1136 C   0  0  0  0  0  0  0  0  0  0  0  0
    2.2596    1.7489    0.8822 C   0  0  0  0  0  0  0  0  0  0  0  0
    4.6291    0.0413   -2.1530 Cl  0  0  0  0  0  0  0  0  0  0  0  0
    4.4991    0.0413    1.9173 C   0  0  0  0  0  3  0  0  0  0  0  0
    5.8033    0.8675    1.7983 N   0  0  0  0  0  0  0  0  0  0  0  0
    6.0983    1.2507    3.2730 C   0  0  0  0  0  0  0  0  0  0  0  0
    4.7065    1.5317    3.8772 C   0  0  0  0  0  0  0  0  0  0  0  0
    3.6900    0.7627    3.0150 N   0  0  0  0  0  0  0  0  0  0  0  0
    2.2323    0.7232    3.2009 C   0  0  0  0  0  0  0  0  0  0  0  0
    1.4895    1.8856    3.1470 C   0  0  0  0  0  0  0  0  0  0  0  0
    2.1870    3.2121    2.8934 C   0  0  0  0  0  0  0  0  0  0  0  0
    0.1766    1.8578    3.3136 C   0  0  0  0  0  0  0  0  0  0  0  0
   -0.4706    0.7251    3.5305 C   0  0  0  0  0  0  0  0  0  0  0  0
   -1.9800    0.7447    3.7086 C   0  0  0  0  0  0  0  0  0  0  0  0
    0.2091   -0.4758    3.5969 C   0  0  0  0  0  0  0  0  0  0  0  0
    1.5866   -0.4827    3.4328 C   0  0  0  0  0  0  0  0  0  0  0  0
    2.3710   -1.7826    3.5053 C   0  0  0  0  0  0  0  0  0  0  0  0
    6.5703    1.2046    0.5904 C   0  0  0  0  0  0  0  0  0  0  0  0
    7.8977    0.8377    0.4942 C   0  0  0  0  0  0  0  0  0  0  0  0
    8.5405    0.0410    1.6178 C   0  0  0  0  0  0  0  0  0  0  0  0
    8.6169    1.1720   -0.5657 C   0  0  0  0  0  0  0  0  0  0  0  0
    8.0956    1.8592   -1.5682 C   0  0  0  0  0  0  0  0  0  0  0  0
    8.9611    2.2127   -2.7667 C   0  0  0  0  0  0  0  0  0  0  0  0
    6.7737    2.2595   -1.5389 C   0  0  0  0  0  0  0  0  0  0  0  0
    5.9925    1.9315   -0.4404 C   0  0  0  0  0  0  0  0  0  0  0  0
    4.5357    2.3591   -0.3678 C   0  0  0  0  0  0  0  0  0  0  0  0
    4.3023   -1.7296    0.4986 H   0  0  0  0  0  0  0  0  0  0  0  0
    6.5202   -1.7769    1.7275 H   0  0  0  0  0  0  0  0  0  0  0  0
    8.3880   -0.5867    2.7324 H   0  0  0  0  0  0  0  0  0  0  0  0
    8.4328    1.8587    2.7771 H   0  0  0  0  0  0  0  0  0  0  0  0
    6.6175    3.1558    1.7737 H   0  0  0  0  0  0  0  0  0  0  0  0
    4.8057    2.7644   -0.2217 H   0  0  0  0  0  0  0  0  0  0  0  0
    4.4559    3.5003    2.1933 H   0  0  0  0  0  0  0  0  0  0  0  0
    2.9260    3.4668    1.3498 H   0  0  0  0  0  0  0  0  0  0  0  0
    3.3654    2.1531    2.4148 H   0  0  0  0  0  0  0  0  0  0  0  0
    3.3408    1.7232   -0.9829 H   0  0  0  0  0  0  0  0  0  0  0  0
    2.1971    2.1698   -1.5531 H   0  0  0  0  0  0  0  0  0  0  0  0
    3.1674    3.3759   -0.7427 H   0  0  0  0  0  0  0  0  0  0  0  0
    3.9167    2.2528   -1.8518 H   0  0  0  0  0  0  0  0  0  0  0  0
    2.1171    2.8087    0.9186 H   0  0  0  0  0  0  0  0  0  0  0  0
    1.3723    1.2824    0.5079 H   0  0  0  0  0  0  0  0  0  0  0  0
    2.4671    1.3829    1.8660 H   0  0  0  0  0  0  0  0  0  0  0  0
    6.7572    2.0897    3.3543 H   0  0  0  0  0  0  0  0  0  0  0  0
    6.5786    0.4437    3.7858 H   0  0  0  0  0  0  0  0  0  0  0  0
    4.4928    2.5802    3.8832 H   0  0  0  0  0  0  0  0  0  0  0  0
    4.6671    1.1876    4.8896 H   0  0  0  0  0  0  0  0  0  0  0  0
    1.7998    3.6533    1.9987 H   0  0  0  0  0  0  0  0  0  0  0  0
    2.0136    3.8699    3.7193 H   0  0  0  0  0  0  0  0  0  0  0  0
    3.2384    3.0470    2.7835 H   0  0  0  0  0  0  0  0  0  0  0  0
   -0.3744    2.7741    3.2719 H   0  0  0  0  0  0  0  0  0  0  0  0
   -2.2320    1.3559    4.5500 H   0  0  0  0  0  0  0  0  0  0  0  0
   -2.4380    1.1440    2.8278 H   0  0  0  0  0  0  0  0  0  0  0  0
   -2.3327   -0.2520    3.8734 H   0  0  0  0  0  0  0  0  0  0  0  0
   -0.3202   -1.3890    3.7728 H   0  0  0  0  0  0  0  0  0  0  0  0
    2.2303   -2.2309    4.4666 H   0  0  0  0  0  0  0  0  0  0  0  0
    2.0241   -2.4514    2.7455 H   0  0  0  0  0  0  0  0  0  0  0  0
    3.4109   -1.5804    3.3548 H   0  0  0  0  0  0  0  0  0  0  0  0
    8.8938   -0.8938    1.2353 H   0  0  0  0  0  0  0  0  0  0  0  0
    9.3622    0.5942    2.0224 H   0  0  0  0  0  0  0  0  0  0  0  0
    7.8181   -0.1382    2.3865 H   0  0  0  0  0  0  0  0  0  0  0  0
    9.6450    0.8790   -0.6124 H   0  0  0  0  0  0  0  0  0  0  0  0
    9.7906    2.8069   -2.4448 H   0  0  0  0  0  0  0  0  0  0  0  0
    9.3215    1.3148   -3.2237 H   0  0  0  0  0  0  0  0  0  0  0  0
    8.3803    2.7653   -3.4754 H   0  0  0  0  0  0  0  0  0  0  0  0
    6.3578    2.8155   -2.3530 H   0  0  0  0  0  0  0  0  0  0  0  0
    4.4747    3.4265   -0.4098 H   0  0  0  0  0  0  0  0  0  0  0  0
    3.9990    1.9385   -1.1925 H   0  0  0  0  0  0  0  0  0  0  0  0
    4.1078    2.0132    0.5499 H   0  0  0  0  0  0  0  0  0  0  0  0
  1  2  1  0  0  0  0
  2  3  2  0  0  0  0
  2 12  1  0  0  0  0
  2 15  1  0  0  0  0
  2 16  1  0  0  0  0
  3  4  1  0  0  0  0
  3 39  1  0  0  0  0
  4  5  1  0  0  0  0
  4  9  2  0  0  0  0
  5  6  2  0  0  0  0
  5 40  1  0  0  0  0
  6  7  1  0  0  0  0
  6 41  1  0  0  0  0
  7  8  2  0  0  0  0
  7 42  1  0  0  0  0
  8  9  1  0  0  0  0
  8 43  1  0  0  0  0
  9 10  1  0  0  0  0
 10 11  1  0  0  0  0
 10 12  1  0  0  0  0
 10 44  1  0  0  0  0
 11 45  1  0  0  0  0
 11 46  1  0  0  0  0
 11 47  1  0  0  0  0
 12 13  1  0  0  0  0
 12 14  1  0  0  0  0
 12 48  1  0  0  0  0
 13 49  1  0  0  0  0
 13 50  1  0  0  0  0
 13 51  1  0  0  0  0
 14 52  1  0  0  0  0
 14 53  1  0  0  0  0
 14 54  1  0  0  0  0
 16 17  1  0  0  0  0
 16 20  1  0  0  0  0
 17 18  1  0  0  0  0
 17 30  1  0  0  0  0
 18 19  1  0  0  0  0
 18 55  1  0  0  0  0
 18 56  1  0  0  0  0
 19 20  1  0  0  0  0
 19 57  1  0  0  0  0
 19 58  1  0  0  0  0
 20 21  1  0  0  0  0
 21 22  1  0  0  0  0
 21 28  2  0  0  0  0
 22 23  1  0  0  0  0
 22 24  2  0  0  0  0
 23 59  1  0  0  0  0
 23 60  1  0  0  0  0
 23 61  1  0  0  0  0
 24 25  1  0  0  0  0
 24 62  1  0  0  0  0
 25 26  1  0  0  0  0
 25 27  2  0  0  0  0
 26 63  1  0  0  0  0
 26 64  1  0  0  0  0
 26 65  1  0  0  0  0
 27 28  1  0  0  0  0
 27 66  1  0  0  0  0
 28 29  1  0  0  0  0
 29 67  1  0  0  0  0
 29 68  1  0  0  0  0
 29 69  1  0  0  0  0
 30 31  1  0  0  0  0
 30 37  2  0  0  0  0
 31 32  1  0  0  0  0
 31 33  2  0  0  0  0
 32 70  1  0  0  0  0
 32 71  1  0  0  0  0
 32 72  1  0  0  0  0
 33 34  1  0  0  0  0
 33 73  1  0  0  0  0
 34 35  1  0  0  0  0
 34 36  2  0  0  0  0
 35 74  1  0  0  0  0
 35 75  1  0  0  0  0
 35 76  1  0  0  0  0
 36 37  1  0  0  0  0
 36 77  1  0  0  0  0
 37 38  1  0  0  0  0
 38 78  1  0  0  0  0
 38 79  1  0  0  0  0
 38 80  1  0  0  0  0
M  END
$$$$
