
     RDKit          3D

 35 38  0  0  0  0  0  0  0  0999 V2000
    4.4424    1.8249    1.8439 F   0  0  0  0  0  0  0  0  0  0  0  0
    4.7523    0.5333    1.5418 C   0  0  0  0  0  0  0  0  0  0  0  0
    4.7638   -0.1400    2.7242 F   0  0  0  0  0  0  0  0  0  0  0  0
    6.0471    0.5574    1.1148 F   0  0  0  0  0  0  0  0  0  0  0  0
    3.8085   -0.0788    0.5354 C   0  0  0  0  0  0  0  0  0  0  0  0
    4.2836   -0.9208   -0.4734 C   0  0  0  0  0  0  0  0  0  0  0  0
    3.3955   -1.4750   -1.3868 C   0  0  0  0  0  0  0  0  0  0  0  0
    2.0254   -1.2031   -1.2924 C   0  0  0  0  0  0  0  0  0  0  0  0
    1.5005   -0.3815   -0.2780 C   0  0  0  0  0  0  0  0  0  0  0  0
    2.4242    0.1775    0.6209 C   0  0  0  0  0  0  0  0  0  0  0  0
    0.0763   -0.1012   -0.1983 N   0  0  0  0  0  0  0  0  0  0  0  0
   -0.7209   -0.3898   -1.4050 C   0  0  0  0  0  0  0  0  0  0  0  0
   -2.1890    0.0486   -1.4148 C   0  0  0  0  0  0  0  0  0  0  0  0
   -2.6833    0.3845   -3.1064 Cl  0  0  0  0  0  0  0  0  0  0  0  0
   -3.0412   -1.0162   -0.9218 O   0  0  0  0  0  0  0  0  0  0  0  0
   -3.8286   -0.4173    0.1423 C   0  0  0  0  0  0  0  0  0  0  0  0
   -5.4183   -1.4216    0.4548 Br  0  0  0  0  0  0  0  0  0  0  0  0
   -2.8885   -0.3476    1.3396 C   0  0  0  0  0  0  0  0  0  0  0  0
   -1.9636    0.8061    0.9061 C   0  0  0  0  0  0  0  0  0  0  0  0
   -2.5114    1.2102   -0.4784 C   0  0  0  0  0  0  0  0  0  0  0  0
   -4.0264    1.0185   -0.3281 C   0  0  0  0  0  0  0  0  0  0  0  0
   -4.9914    2.3976    0.9368 I   0  0  0  0  0  0  0  0  0  0  0  0
   -0.5062    0.4011    0.9628 C   0  0  0  0  0  0  0  0  0  0  0  0
    0.0495    0.4831    2.0592 O   0  0  0  0  0  0  0  0  0  0  0  0
    5.3466   -1.1432   -0.5535 H   0  0  0  0  0  0  0  0  0  0  0  0
    3.7648   -2.1279   -2.1748 H   0  0  0  0  0  0  0  0  0  0  0  0
    1.3909   -1.6839   -2.0306 H   0  0  0  0  0  0  0  0  0  0  0  0
    2.1050    0.8603    1.4052 H   0  0  0  0  0  0  0  0  0  0  0  0
   -0.1939    0.1139   -2.2259 H   0  0  0  0  0  0  0  0  0  0  0  0
   -0.6893   -1.4739   -1.5682 H   0  0  0  0  0  0  0  0  0  0  0  0
   -2.3430   -1.2864    1.4920 H   0  0  0  0  0  0  0  0  0  0  0  0
   -3.4033   -0.0997    2.2743 H   0  0  0  0  0  0  0  0  0  0  0  0
   -2.0701    1.6512    1.5983 H   0  0  0  0  0  0  0  0  0  0  0  0
   -2.1660    2.1889   -0.8214 H   0  0  0  0  0  0  0  0  0  0  0  0
   -4.5417    1.0507   -1.2946 H   0  0  0  0  0  0  0  0  0  0  0  0
  1  2  1  0
  2  3  1  0
  2  4  1  0
  2  5  1  0
  5  6  2  0
  6  7  1  0
  7  8  2  0
  8  9  1  0
  9 10  2  0
  9 11  1  0
 11 12  1  0
 12 13  1  0
 13 14  1  0
 13 15  1  0
 15 16  1  0
 16 17  1  0
 16 18  1  0
 18 19  1  0
 19 20  1  0
 20 21  1  0
 21 22  1  0
 19 23  1  0
 23 24  2  0
 10  5  1  0
 23 11  1  0
 20 13  1  0
 21 16  1  0
  6 25  1  0
  7 26  1  0
  8 27  1  0
 10 28  1  0
 12 29  1  0
 12 30  1  0
 18 31  1  0
 18 32  1  0
 19 33  1  0
 20 34  1  0
 21 35  1  0
M  END
