
  --CCDC--092525    3D                              

 87103  0  0  0  0  0  0  0  0999 V2000
   -0.0846    0.2659    0.3378 H      0
   -1.8376    0.4276    0.1593 Ru     0
   -1.3934    2.4886   -1.0637 Cl     0
    0.6390    1.8599    0.1054 Ru     0
   -1.1508    2.1559    1.8630 P      3
   -1.9405    3.7999    1.9203 C      0
   -2.8613    4.2811    0.9897 C      0
   -3.3381    5.5804    1.0447 C      0
   -2.9177    6.4367    2.0351 C      0
   -2.0248    5.9847    2.9778 C      0
   -1.5476    4.6860    2.9223 C      0
   -0.7687    1.4521    3.4917 C      0
   -1.3026    1.9988    4.6561 C      0
   -1.0014    1.4561    5.8945 C      0
   -0.1916    0.3464    5.9900 C      0
    0.3018   -0.2359    4.8441 C      0
    0.0015    0.3044    3.6051 C      0
    1.8151    1.7664   -1.5560 C      0
    3.1429    1.6541   -2.2812 C      0
    2.2633    0.8293   -0.4057 C      0
    2.3756   -0.6644   -0.6231 C      0
    2.3713    1.3858    1.0352 C      0
    2.7252    0.3659    2.0967 C      0
    1.8916    2.8118    1.3801 C      0
    1.7352    3.2295    2.8265 C      0
    1.3372    3.7259    0.2662 C      0
    0.6041    5.0199    0.5513 C      0
    1.4259    3.2288   -1.1984 C      0
    2.5689    4.1425   -1.5973 C      0
   -2.5352   -0.5022   -1.5131 C      0
   -3.6065   -1.1320   -2.3850 C      0
   -3.5022    0.5716   -0.9343 C      0
   -3.9766    1.7035   -1.8236 C      0
   -3.8046    0.5975    0.5821 C      0
   -4.6102    1.7234    1.1929 C      0
   -3.0802   -0.3653    1.5468 C      0
   -3.2485   -0.1161    3.0311 C      0
   -2.0374   -1.3693    1.0118 C      0
   -1.0808   -2.1315    1.9056 C      0
   -1.8710   -1.5003   -0.5265 C      0
   -2.5871   -2.8331   -0.6394 C      0
   -3.2367    3.6333    0.2116 H      0
   -4.0503    5.9245    0.3020 H      0
   -3.2892    7.4553    2.0746 H      0
   -1.6936    6.6482    3.7698 H      0
   -0.8613    4.3511    3.6913 H      0
   -1.9691    2.8514    4.6035 H      0
   -1.4087    1.9058    6.7941 H      0
    0.0493   -0.0714    6.9619 H      0
    0.9235   -1.1226    4.9119 H      0
    0.3592   -0.1790    2.7069 H      0
    3.3398    0.6282   -2.5830 H      0
    3.9630    1.9804   -1.6448 H      0
    3.1506    2.2547   -3.1885 H      0
    2.4542   -0.8989   -1.6824 H      0
    1.5010   -1.1771   -0.2283 H      0
    3.2556   -1.0617   -0.1216 H      0
    2.1479   -0.5456    1.9593 H      0
    2.5420    0.7342    3.1016 H      0
    3.7785    0.1018    2.0284 H      0
    0.8778    3.8783    2.9546 H      0
    2.6159    3.7746    3.1599 H      0
    1.6045    2.3774    3.4857 H      0
   -0.4265    4.9620    0.2094 H      0
    1.0777    5.8479    0.0283 H      0
    0.6015    5.2582    1.6114 H      0
    2.7405    4.1211   -2.6716 H      0
    3.4917    3.8710   -1.0882 H      0
    2.3428    5.1727   -1.3326 H      0
   -3.9762   -0.4316   -3.1299 H      0
   -4.4507   -1.4646   -1.7845 H      0
   -3.2177   -1.9863   -2.9354 H      0
   -4.9841    1.5042   -2.1827 H      0
   -3.3303    1.8101   -2.6924 H      0
   -3.9965    2.6517   -1.2949 H      0
   -5.5215    1.3370    1.6445 H      0
   -4.8942    2.4624    0.4478 H      0
   -4.0423    2.2286    1.9702 H      0
   -4.1763   -0.5585    3.3877 H      0
   -2.4329   -0.5428    3.6072 H      0
   -3.2821    0.9483    3.2497 H      0
   -1.1517   -3.2006    1.7180 H      0
   -1.2892   -1.9680    2.9590 H      0
   -0.0537   -1.8310    1.7113 H      0
   -2.4712   -3.2661   -1.6308 H      0
   -3.6484   -2.7355   -0.4191 H      0
   -2.1744   -3.5492    0.0670 H      0
  1  2  1
  2  3  1
  3  4  1
  1  4  1
  2  4  1
  4  5  1
  2  5  1
  5  6  1
  6  7  4
  7  8  4
  8  9  4
  9 10  4
 10 11  4
  6 11  4
  5 12  1
 12 13  4
 13 14  4
 14 15  4
 15 16  4
 16 17  4
 12 17  4
  4 18  1
 18 19  1
 18 20  4
  4 20  1
 20 21  1
 20 22  4
  4 22  1
 22 23  1
 22 24  4
  4 24  1
 24 25  1
 24 26  4
  4 26  1
 26 27  1
 26 28  4
  4 28  1
 18 28  4
 28 29  1
  2 30  1
 30 31  1
 30 32  4
  2 32  1
 32 33  1
 32 34  4
  2 34  1
 34 35  1
 34 36  4
  2 36  1
 36 37  1
 36 38  4
  2 38  1
 38 39  1
 38 40  4
  2 40  1
 30 40  4
 40 41  1
  7 42  1
  8 43  1
  9 44  1
 10 45  1
 11 46  1
 13 47  1
 14 48  1
 15 49  1
 16 50  1
 17 51  1
 19 52  1
 19 53  1
 19 54  1
 21 55  1
 21 56  1
 21 57  1
 23 58  1
 23 59  1
 23 60  1
 25 61  1
 25 62  1
 25 63  1
 27 64  1
 27 65  1
 27 66  1
 29 67  1
 29 68  1
 29 69  1
 31 70  1
 31 71  1
 31 72  1
 33 73  1
 33 74  1
 33 75  1
 35 76  1
 35 77  1
 35 78  1
 37 79  1
 37 80  1
 37 81  1
 39 82  1
 39 83  1
 39 84  1
 41 85  1
 41 86  1
 41 87  1
M  CHG  1   5   1
M  END
$$$$
