
     RDKit          3D

 53 57  0  0  0  0  0  0  0  0999 V2000
   -0.2694   -4.5653   -0.2068 I   0  0  0  0  0  0  0  0  0  0  0  0
    0.0236   -2.9259   -0.5548 Cu  0  0  0  0  0  3  0  0  0  0  0  0
    0.4855   -1.6197    1.1543 S   0  0  0  0  0  3  0  0  0  0  0  0
    1.2862   -0.3324    0.3309 P   0  0  0  0  0  0  0  0  0  0  0  0
    0.0704    0.5767   -0.6154 C   0  0  0  0  0  0  0  0  0  0  0  0
   -1.4492   -0.3254   -0.8970 P   0  0  0  0  0  0  0  0  0  0  0  0
   -1.2164   -1.7589   -1.8348 S   0  0  0  0  0  3  0  0  0  0  0  0
   -2.2070   -0.8530    0.6425 C   0  0  0  0  0  0  0  0  0  0  0  0
   -2.9852   -1.9948    0.6834 C   0  0  0  0  0  0  0  0  0  0  0  0
   -3.6185   -2.4998    1.8055 C   0  0  0  0  0  0  0  0  0  0  0  0
   -3.4479   -1.7888    2.9789 C   0  0  0  0  0  0  0  0  0  0  0  0
   -2.6818   -0.6454    2.9885 C   0  0  0  0  0  0  0  0  0  0  0  0
   -2.0711   -0.1879    1.8307 C   0  0  0  0  0  0  0  0  0  0  0  0
   -2.6162    0.7757   -1.6538 C   0  0  0  0  0  0  0  0  0  0  0  0
   -2.6297    0.8799   -3.0308 C   0  0  0  0  0  0  0  0  0  0  0  0
   -3.5454    1.7413   -3.5873 C   0  0  0  0  0  0  0  0  0  0  0  0
   -4.4257    2.4838   -2.8418 C   0  0  0  0  0  0  0  0  0  0  0  0
   -4.4304    2.3958   -1.4616 C   0  0  0  0  0  0  0  0  0  0  0  0
   -3.5067    1.5260   -0.8878 C   0  0  0  0  0  0  0  0  0  0  0  0
    2.0570    0.7649    1.4750 C   0  0  0  0  0  0  0  0  0  0  0  0
    2.1203    0.6672    2.8413 C   0  0  0  0  0  0  0  0  0  0  0  0
    2.7834    1.6535    3.5399 C   0  0  0  0  0  0  0  0  0  0  0  0
    3.3827    2.7259    2.9449 C   0  0  0  0  0  0  0  0  0  0  0  0
    3.3283    2.8362    1.5919 C   0  0  0  0  0  0  0  0  0  0  0  0
    2.6718    1.8648    0.8666 C   0  0  0  0  0  0  0  0  0  0  0  0
    2.6259   -0.9495   -0.7120 C   0  0  0  0  0  0  0  0  0  0  0  0
    3.8020   -1.2807   -0.0883 C   0  0  0  0  0  0  0  0  0  0  0  0
    4.8529   -1.7586   -0.8609 C   0  0  0  0  0  0  0  0  0  0  0  0
    4.7364   -1.9042   -2.2272 C   0  0  0  0  0  0  0  0  0  0  0  0
    3.5350   -1.5642   -2.8511 C   0  0  0  0  0  0  0  0  0  0  0  0
    2.4939   -1.0896   -2.0769 C   0  0  0  0  0  0  0  0  0  0  0  0
   -0.2020    1.5283   -0.1219 H   0  0  0  0  0  0  0  0  0  0  0  0
    0.4965    0.8360   -1.5953 H   0  0  0  0  0  0  0  0  0  0  0  0
   -3.1186   -2.5540   -0.2427 H   0  0  0  0  0  0  0  0  0  0  0  0
   -4.2085   -3.4090    1.7249 H   0  0  0  0  0  0  0  0  0  0  0  0
   -3.9442   -2.1753    3.8822 H   0  0  0  0  0  0  0  0  0  0  0  0
   -2.5448   -0.0867    3.8990 H   0  0  0  0  0  0  0  0  0  0  0  0
   -1.4617    0.7154    1.8220 H   0  0  0  0  0  0  0  0  0  0  0  0
   -1.9614    0.3201   -3.6566 H   0  0  0  0  0  0  0  0  0  0  0  0
   -3.6236    1.8842   -4.6723 H   0  0  0  0  0  0  0  0  0  0  0  0
   -5.1632    3.1745   -3.2438 H   0  0  0  0  0  0  0  0  0  0  0  0
   -5.0579    2.9128   -0.7459 H   0  0  0  0  0  0  0  0  0  0  0  0
   -3.4359    1.3897    0.1971 H   0  0  0  0  0  0  0  0  0  0  0  0
    1.6333   -0.1922    3.2438 H   0  0  0  0  0  0  0  0  0  0  0  0
    2.8202    1.5558    4.6108 H   0  0  0  0  0  0  0  0  0  0  0  0
    3.9015    3.4925    3.5244 H   0  0  0  0  0  0  0  0  0  0  0  0
    3.8066    3.6896    1.1336 H   0  0  0  0  0  0  0  0  0  0  0  0
    2.6871    2.0502   -0.2191 H   0  0  0  0  0  0  0  0  0  0  0  0
    3.9802   -1.1963    0.9894 H   0  0  0  0  0  0  0  0  0  0  0  0
    5.8128   -2.0446   -0.4670 H   0  0  0  0  0  0  0  0  0  0  0  0
    5.4994   -2.2662   -2.8976 H   0  0  0  0  0  0  0  0  0  0  0  0
    3.3712   -1.6495   -3.8985 H   0  0  0  0  0  0  0  0  0  0  0  0
    1.5581   -0.8232   -2.5524 H   0  0  0  0  0  0  0  0  0  0  0  0
  1  2  1  0
  2  3  1  0
  3  4  2  0
  4  5  1  0
  5  6  1  0
  6  7  2  0
  6  8  1  0
  8  9  2  0
  9 10  1  0
 10 11  2  0
 11 12  1  0
 12 13  2  0
  6 14  1  0
 14 15  2  0
 15 16  1  0
 16 17  2  0
 17 18  1  0
 18 19  2  0
  4 20  1  0
 20 21  2  0
 21 22  1  0
 22 23  2  0
 23 24  1  0
 24 25  2  0
  4 26  1  0
 26 27  2  0
 27 28  1  0
 28 29  2  0
 29 30  1  0
 30 31  2  0
  7  2  1  0
 13  8  1  0
 19 14  1  0
 25 20  1  0
 31 26  1  0
  5 32  1  0
  5 33  1  0
  9 34  1  0
 10 35  1  0
 11 36  1  0
 12 37  1  0
 13 38  1  0
 15 39  1  0
 16 40  1  0
 17 41  1  0
 18 42  1  0
 19 43  1  0
 21 44  1  0
 22 45  1  0
 23 46  1  0
 24 47  1  0
 25 48  1  0
 27 49  1  0
 28 50  1  0
 29 51  1  0
 30 52  1  0
 31 53  1  0
M  RAD  2   3   2   7   2
M  END
