
 OpenBabel09252516073D

 42 41  0  0  0  0  0  0  0  0999 V2000
    0.9904    0.0958   -0.0271 C   0  0  0  0  0  0  0  0  0  0  0  0
    0.2837    1.6861    1.1836 Pt  0  0  0  0  0  0  0  0  0  0  0  0
    2.0147    2.8151    0.7109 C   0  0  0  0  0  0  0  0  0  0  0  0
   -0.7157    2.5171   -0.4913 C   0  0  0  0  0  0  0  0  0  0  0  0
   -0.4063    3.2390    2.3657 N   0  0  0  0  0  0  0  0  0  0  0  0
    0.2805    4.3018    2.4832 N   0  3  0  0  0  0  0  0  0  0  0  0
    0.9674    5.3646    2.6007 N   0  5  0  0  0  0  0  0  0  0  0  0
   -1.7004    0.3920    1.7254 P   0  0  0  0  0  4  0  0  0  0  0  0
   -1.2937   -1.3919    1.6897 C   0  0  0  0  0  0  0  0  0  0  0  0
   -2.2899    0.8499    3.3963 C   0  0  0  0  0  0  0  0  0  0  0  0
   -3.0118    0.7434    0.4984 C   0  0  0  0  0  0  0  0  0  0  0  0
    1.4292    0.7336    3.1033 P   0  0  0  0  0  4  0  0  0  0  0  0
    0.7843   -0.9483    3.4258 C   0  0  0  0  0  0  0  0  0  0  0  0
    3.2243    0.6431    2.7594 C   0  0  0  0  0  0  0  0  0  0  0  0
    1.1416    1.7888    4.5706 C   0  0  0  0  0  0  0  0  0  0  0  0
    0.6337    0.2236   -1.0278 H   0  0  0  0  0  0  0  0  0  0  0  0
    0.6337   -0.8348    0.3625 H   0  0  0  0  0  0  0  0  0  0  0  0
    2.0604    0.0958   -0.0271 H   0  0  0  0  0  0  0  0  0  0  0  0
    2.3593    2.5474   -0.2661 H   0  0  0  0  0  0  0  0  0  0  0  0
    1.7769    3.8582    0.7318 H   0  0  0  0  0  0  0  0  0  0  0  0
    2.7814    2.6097    1.4283 H   0  0  0  0  0  0  0  0  0  0  0  0
   -1.7653    2.5700   -0.2902 H   0  0  0  0  0  0  0  0  0  0  0  0
   -0.3386    3.5005   -0.6798 H   0  0  0  0  0  0  0  0  0  0  0  0
   -0.5476    1.9001   -1.3492 H   0  0  0  0  0  0  0  0  0  0  0  0
   -0.5270   -1.5974    2.4071 H   0  0  0  0  0  0  0  0  0  0  0  0
   -2.1674   -1.9617    1.9282 H   0  0  0  0  0  0  0  0  0  0  0  0
   -0.9491   -1.6596    0.7127 H   0  0  0  0  0  0  0  0  0  0  0  0
   -2.5276    1.8929    3.4172 H   0  0  0  0  0  0  0  0  0  0  0  0
   -3.1635    0.2801    3.6349 H   0  0  0  0  0  0  0  0  0  0  0  0
   -1.5231    0.6444    4.1137 H   0  0  0  0  0  0  0  0  0  0  0  0
   -3.2496    1.7865    0.5193 H   0  0  0  0  0  0  0  0  0  0  0  0
   -2.6671    0.4757   -0.4786 H   0  0  0  0  0  0  0  0  0  0  0  0
   -3.8854    0.1736    0.7369 H   0  0  0  0  0  0  0  0  0  0  0  0
    0.9525   -1.5653    2.5679 H   0  0  0  0  0  0  0  0  0  0  0  0
    1.2887   -1.3677    4.2711 H   0  0  0  0  0  0  0  0  0  0  0  0
   -0.2653   -0.8954    3.6269 H   0  0  0  0  0  0  0  0  0  0  0  0
    3.6014    1.6266    2.5709 H   0  0  0  0  0  0  0  0  0  0  0  0
    3.7287    0.2237    3.6048 H   0  0  0  0  0  0  0  0  0  0  0  0
    3.3925    0.0262    1.9015 H   0  0  0  0  0  0  0  0  0  0  0  0
    1.5187    2.7723    4.3821 H   0  0  0  0  0  0  0  0  0  0  0  0
    0.0920    1.8418    4.7717 H   0  0  0  0  0  0  0  0  0  0  0  0
    1.6460    1.3694    5.4159 H   0  0  0  0  0  0  0  0  0  0  0  0
  1  2  1  0  0  0  0
  1 16  1  0  0  0  0
  1 17  1  0  0  0  0
  1 18  1  0  0  0  0
  2  3  1  0  0  0  0
  2  4  1  0  0  0  0
  2  5  1  0  0  0  0
  2  8  1  0  0  0  0
  2 12  1  0  0  0  0
  3 19  1  0  0  0  0
  3 20  1  0  0  0  0
  3 21  1  0  0  0  0
  4 22  1  0  0  0  0
  4 23  1  0  0  0  0
  4 24  1  0  0  0  0
  5  6  2  0  0  0  0
  6  7  2  0  0  0  0
  8  9  1  0  0  0  0
  8 10  1  0  0  0  0
  8 11  1  0  0  0  0
  9 25  1  0  0  0  0
  9 26  1  0  0  0  0
  9 27  1  0  0  0  0
 10 28  1  0  0  0  0
 10 29  1  0  0  0  0
 10 30  1  0  0  0  0
 11 31  1  0  0  0  0
 11 32  1  0  0  0  0
 11 33  1  0  0  0  0
 12 13  1  0  0  0  0
 12 14  1  0  0  0  0
 12 15  1  0  0  0  0
 13 34  1  0  0  0  0
 13 35  1  0  0  0  0
 13 36  1  0  0  0  0
 14 37  1  0  0  0  0
 14 38  1  0  0  0  0
 14 39  1  0  0  0  0
 15 40  1  0  0  0  0
 15 41  1  0  0  0  0
 15 42  1  0  0  0  0
M  CHG  2   6   1   7  -1
M  END
$$$$
