
  --CCDC--092525    3D                              

114121  0  0  0  0  0  0  0  0999 V2000
    0.1274    0.1173   -0.0567 H      0
    0.6301    1.0791   -0.0442 C      0
    0.8516    1.7609   -1.2271 C      0
    0.5238    1.3212   -2.1630 H      0
    1.4858    3.0016   -1.2417 C      0
    1.7124    3.6910   -2.5821 C      0
    2.1735    4.6761   -2.4162 H      0
    2.6332    2.8780   -3.4917 C      0
    2.5520    3.2217   -4.5207 H      0
    2.3698    1.8229   -3.4656 H      0
    3.6726    2.9762   -3.1934 H      0
    0.3947    3.9035   -3.3246 C      0
   -0.1284    2.9590   -3.4590 H      0
    0.5771    4.3335   -4.3074 H      0
   -0.2569    4.5814   -2.7791 H      0
    1.8693    3.5585   -0.0049 C      0
    2.5393    4.8127   -0.0379 N      0
    3.8949    4.8195   -0.4775 C      0
    4.6018    6.0110   -0.5873 C      0
    5.9522    5.7157   -1.0933 C      0
    7.0908    6.3949   -1.4670 C      0
    7.1204    7.4771   -1.3961 H      0
    8.1964    5.7017   -1.9477 C      0
    9.0759    6.2629   -2.2452 H      0
    8.2154    4.3393   -2.0601 C      0
    9.1003    3.8374   -2.4364 H      0
    7.0798    3.5852   -1.6872 C      0
    6.9532    2.1769   -1.7298 C      0
    7.7784    1.5682   -2.0831 H      0
    5.7933    1.5807   -1.3195 C      0
    5.7217    0.4982   -1.3420 H      0
    4.7013    2.3160   -0.8751 C      0
    3.7997    1.8050   -0.5529 H      0
    4.7589    3.6922   -0.8472 C      0
    5.9649    4.3112   -1.2253 C      0
    3.9686    7.2398   -0.2205 N      0
    4.6931    8.4731   -0.1904 C      0
    4.7288    9.3827   -1.2773 C      0
    4.1540    9.1014   -2.6621 C      0
    3.3889    8.3135   -2.5807 H      0
    5.2562    8.6373   -3.6128 C      0
    5.6532    7.6729   -3.3088 H      0
    6.0757    9.3542   -3.6264 H      0
    4.8737    8.5432   -4.6274 H      0
    3.5239   10.3391   -3.3082 C      0
    2.7021   10.0580   -3.9628 H      0
    4.2522   10.8834   -3.9048 H      0
    3.1359   11.0195   -2.5535 H      0
    5.3706   10.6089   -1.0652 C      0
    5.4129   11.3559   -1.8500 H      0
    5.9899   10.9135    0.1309 C      0
    6.4492   11.8864    0.2730 H      0
    6.0468    9.9668    1.1318 C      0
    6.5859   10.1967    2.0446 H      0
    5.4366    8.7244    0.9819 C      0
    5.6294    7.7011    2.0907 C      0
    4.8724    6.9081    1.9948 H      0
    5.4918    8.3479    3.4670 C      0
    4.5370    8.8607    3.5577 H      0
    6.2854    9.0700    3.6441 H      0
    5.5430    7.5906    4.2468 H      0
    7.0167    7.0660    2.0037 C      0
    7.1027    6.4349    1.1234 H      0
    7.7867    7.8325    1.9463 H      0
    7.2174    6.4518    2.8788 H      0
    1.4479    7.1465    0.6368 Eu     0
    2.5349    6.7547    3.0348 N      0
    3.0641    6.5114    4.2354 C      0
    3.7426    6.1996    5.7746 S      0
    0.5569    8.1352   -1.6525 O      0
    0.7553    7.4105   -2.8369 C      0
    1.0424    8.0740   -3.6505 H      0
   -0.1519    6.8857   -3.1271 H      0
    1.5451    6.6741   -2.7021 H      0
    0.7118    9.5317   -1.8153 C      0
    1.6630    9.7207   -2.3135 H      0
   -0.0686    9.9178   -2.4836 H      0
    0.6793   10.2786   -0.5022 C      0
    0.8490   11.3480   -0.6794 H      0
   -0.3108   10.1945   -0.0373 H      0
    1.6670    9.7706    0.3711 O      0
    1.9596   10.5898    1.4726 C      0
    1.1114   10.6587    2.1497 H      0
    2.8079   10.1948    2.0277 H      0
    2.2095   11.5953    1.1417 H      0
   -0.4094    7.6481    2.4668 O      0
   -0.7673    8.9766    2.7448 C      0
   -0.5506    9.6181    1.8929 H      0
   -0.2114    9.3510    3.6025 H      0
   -1.8303    9.0551    2.9647 H      0
   -1.4864    6.7369    2.5206 C      0
   -1.1786    5.8030    3.0072 H      0
   -2.3084    7.1522    3.1169 H      0
   -1.9407    6.4635    1.1156 C      0
   -2.8231    5.8109    1.1105 H      0
   -2.2301    7.3982    0.6199 H      0
   -0.8694    5.8585    0.4269 O      0
   -1.0657    4.5032    0.1266 C      0
   -2.1275    4.2653    0.1107 H      0
   -0.5918    3.8620    0.8643 H      0
   -0.6655    4.2683   -0.8544 H      0
    1.7002    2.8579    1.2058 C      0
    2.1955    3.3731    2.5467 C      0
    2.7080    4.3299    2.3784 H      0
    3.1887    2.3978    3.1785 C      0
    4.0443    2.2366    2.5261 H      0
    3.5550    2.7838    4.1276 H      0
    2.7205    1.4340    3.3671 H      0
    1.0398    3.5967    3.5222 C      0
    0.5066    2.6683    3.7159 H      0
    0.3309    4.3197    3.1242 H      0
    1.4091    3.9708    4.4747 H      0
    1.0598    1.6201    1.1542 C      0
    0.8998    1.0620    2.0703 H      0
  1  2  1
  2  3  4
  3  4  1
  3  5  4
  5  6  1
  6  7  1
  6  8  1
  8  9  1
  8 10  1
  8 11  1
  6 12  1
 12 13  1
 12 14  1
 12 15  1
  5 16  4
 16 17  1
 17 18  1
 18 19  2
 19 20  1
 20 21  4
 21 22  1
 21 23  4
 23 24  1
 23 25  4
 25 26  1
 25 27  4
 27 28  4
 28 29  1
 28 30  4
 30 31  1
 30 32  4
 32 33  1
 32 34  4
 18 34  1
 34 35  4
 20 35  4
 27 35  4
 19 36  1
 36 37  1
 37 38  4
 38 39  1
 39 40  1
 39 41  1
 41 42  1
 41 43  1
 41 44  1
 39 45  1
 45 46  1
 45 47  1
 45 48  1
 38 49  4
 49 50  1
 49 51  4
 51 52  1
 51 53  4
 53 54  1
 53 55  4
 37 55  4
 55 56  1
 56 57  1
 56 58  1
 58 59  1
 58 60  1
 58 61  1
 56 62  1
 62 63  1
 62 64  1
 62 65  1
 36 66  1
 17 66  1
 66 67  1
 67 68  4
 68 69  4
 66 70  1
 70 71  1
 71 72  1
 71 73  1
 71 74  1
 70 75  1
 75 76  1
 75 77  1
 75 78  1
 78 79  1
 78 80  1
 78 81  1
 66 81  1
 81 82  1
 82 83  1
 82 84  1
 82 85  1
 66 86  1
 86 87  1
 87 88  1
 87 89  1
 87 90  1
 86 91  1
 91 92  1
 91 93  1
 91 94  1
 94 95  1
 94 96  1
 94 97  1
 66 97  1
 97 98  1
 98 99  1
 98100  1
 98101  1
 16102  4
102103  1
103104  1
103105  1
105106  1
105107  1
105108  1
103109  1
109110  1
109111  1
109112  1
102113  4
  2113  4
113114  1
M  END
$$$$
