
  --CCDC--092525    3D                              

 90105  0  0  0  0  0  0  0  0999 V2000
   -0.8574   -4.4708   -7.0322 H      0
   -0.9543   -3.9779   -6.0705 C      0
    0.1682   -3.6375   -5.3507 C      0
    1.1522   -3.8779   -5.7394 H      0
    0.0475   -2.9960   -4.1295 C      0
    0.9460   -2.7805   -3.5630 H      0
   -1.2039   -2.6365   -3.6217 C      0
   -1.3390   -1.8650   -1.9832 P      0
   -2.3701   -0.6067   -1.1531 C      0
   -3.6597   -0.9350   -0.7222 C      0
   -3.9994   -1.9619   -0.8086 H      0
   -4.5124    0.0133   -0.1823 C      0
   -5.4976   -0.2811    0.1640 H      0
   -4.1174    1.3279   -0.0868 C      0
   -4.7826    2.0698    0.3425 H      0
   -2.8742    1.6945   -0.5489 C      0
   -2.5617    2.7320   -0.4930 H      0
   -2.0219    0.7460   -1.0893 C      0
   -1.0554    1.0605   -1.4690 H      0
    0.7680   -0.8666   -2.4132 Cu     0
    0.9391    0.7070   -3.6565 N      0
    2.1652    0.9845   -4.3374 C      0
    2.3215    1.9115   -5.1088 O      0
    3.3710    0.0393   -4.1977 C      0
    4.2285    0.4587   -3.2865 F      0
    2.9905   -1.1678   -3.8124 F      0
    4.0180   -0.1295   -5.3391 F      0
   -0.2138    1.5184   -3.8752 C      0
   -0.1120    2.9019   -3.9470 C      0
    0.8573    3.3733   -3.8225 H      0
   -1.2279    3.6882   -4.1724 C      0
   -1.1125    4.7658   -4.2177 H      0
   -2.4691    3.0916   -4.3364 C      0
   -3.6073    3.8264   -4.5583 O      0
   -4.8641    3.1725   -4.7213 C      0
   -5.6576    3.8980   -4.8880 H      0
   -4.8393    2.4958   -5.5729 H      0
   -5.1153    2.5931   -3.8353 H      0
   -2.5786    1.7136   -4.2790 C      0
   -3.5469    1.2426   -4.4118 H      0
   -1.4583    0.9340   -4.0552 C      0
   -1.5565   -0.1439   -4.0252 H      0
    2.4554   -1.4617   -0.8461 P      0
    3.1716   -3.1290   -0.9153 C      0
    3.3605   -3.7982   -2.1274 C      0
    3.0224   -3.3488   -3.0528 H      0
    3.9604   -5.0460   -2.1660 C      0
    4.0954   -5.5505   -3.1171 H      0
    4.3841   -5.6512   -1.0038 C      0
    4.8513   -6.6299   -1.0379 H      0
    4.2127   -5.0082    0.2018 C      0
    4.5470   -5.4816    1.1190 H      0
    3.6184   -3.7583    0.2475 C      0
    3.5014   -3.2591    1.2035 H      0
    3.2495   -0.2328    0.2218 C      0
    4.2494   -0.5796    1.1321 C      0
    4.5887   -1.6062    1.2028 H      0
    4.8230    0.3801    1.9497 C      0
    5.6002    0.0963    2.6516 H      0
    4.4124    1.6932    1.8762 C      0
    4.8654    2.4414    2.5183 H      0
    3.4251    2.0538    0.9858 C      0
    3.1006    3.0875    0.9278 H      0
    2.8447    1.1013    0.1651 C      0
    2.0656    1.3959   -0.5302 H      0
    1.3888   -1.2322    0.6460 C      0
    0.1872   -0.5770    0.6447 C      0
    0.0643   -0.3209   -0.4642 H      0
   -0.7088   -0.9099    1.7701 C      0
   -1.8048   -0.7440    1.5320 H      0
    0.0658   -1.8759    2.6003 C      0
   -0.4268   -2.8503    2.8608 H      0
    1.3526   -1.9693    1.8740 C      0
    1.5815   -3.0586    1.6264 H      0
   -0.2260   -2.7085    0.7024 Fe     0
   -0.0936   -4.8359    0.5557 C      0
    0.8802   -5.0868    1.0782 H      0
   -1.4680   -4.3944    0.9812 C      0
   -1.5547   -3.8631    1.9670 H      0
   -2.0504   -3.6226   -0.1459 C      0
   -2.2497   -2.5841    0.2943 H      0
   -1.0946   -3.4629   -1.1535 C      0
    0.0791   -4.1659   -0.7313 C      0
    0.9476   -3.7803   -1.3488 H      0
   -2.3323   -3.0603   -4.3358 C      0
   -3.3331   -2.9002   -3.9472 H      0
   -2.2010   -3.7019   -5.5564 C      0
   -3.0878   -3.9936   -6.1093 H      0
   -2.4908   -1.6688   -2.7485 H      0
    3.3453   -0.6763   -1.5818 H      0
  1  2  1
  2  3  4
  3  4  1
  3  5  4
  5  6  1
  5  7  4
  7  8  1
  8  9  1
  9 10  4
 10 11  1
 10 12  4
 12 13  1
 12 14  4
 14 15  1
 14 16  4
 16 17  1
 16 18  4
  9 18  4
 18 19  1
  8 20  1
 20 21  1
 21 22  1
 22 23  2
 22 24  1
 24 25  1
 24 26  1
 24 27  1
 21 28  1
 28 29  4
 29 30  1
 29 31  4
 31 32  1
 31 33  4
 33 34  1
 34 35  1
 35 36  1
 35 37  1
 35 38  1
 33 39  4
 39 40  1
 39 41  4
 28 41  4
 41 42  1
 20 43  1
 43 44  1
 44 45  4
 45 46  1
 45 47  4
 47 48  1
 47 49  4
 49 50  1
 49 51  4
 51 52  1
 51 53  4
 44 53  4
 53 54  1
 43 55  1
 55 56  4
 56 57  1
 56 58  4
 58 59  1
 58 60  4
 60 61  1
 60 62  4
 62 63  1
 62 64  4
 55 64  4
 64 65  1
 43 66  1
 66 67  4
 67 68  1
 67 69  4
 69 70  1
 69 71  4
 71 72  1
 71 73  4
 66 73  4
 73 74  1
 73 75  1
 69 75  1
 71 75  1
 67 75  1
 66 75  1
 75 76  1
 76 77  1
 76 78  4
 75 78  1
 78 79  1
 78 80  4
 75 80  1
 80 81  1
 80 82  4
  8 82  1
 75 82  1
 82 83  4
 76 83  4
 75 83  1
 83 84  1
  7 85  4
 85 86  1
 85 87  4
  2 87  4
 87 88  1
  8 89  1
 43 90  1
M  END
$$$$
