
 OpenBabel09252516213D

 48 56  0  0  1  0  0  0  0  0999 V2000
    1.0383   -0.0615   -0.0689 H   0  0  0  0  0  0  0  0  0  0  0  0
    2.1083   -0.0615   -0.0689 C   0  0  0  0  0  3  0  0  0  0  0  0
    2.6150   -1.3880    0.4734 C   0  0  0  0  0  3  0  0  0  0  0  0
    3.6850   -1.3880    0.4734 H   0  0  0  0  0  0  0  0  0  0  0  0
    2.1083   -1.5816    1.8933 C   0  0  0  0  0  3  0  0  0  0  0  0
    2.8756   -0.6246    2.7818 C   0  0  0  0  0  3  0  0  0  0  0  0
    2.2353    0.7612    2.6184 C   0  0  0  0  0  3  0  0  0  0  0  0
    2.2733    1.1722    1.1555 C   0  0  0  0  0  3  0  0  0  0  0  0
    1.7309    0.4591    0.5705 H   0  0  0  0  0  0  0  0  0  0  0  0
    1.6386    2.5443    0.9981 C   0  0  0  0  0  3  0  0  0  0  0  0
    2.1810    3.2574    1.5831 H   0  0  0  0  0  0  0  0  0  0  0  0
    1.6766    2.9553   -0.4648 C   0  0  0  0  0  3  0  0  0  0  0  0
    2.1192    3.8755   -0.7844 H   0  0  0  0  0  0  0  0  0  0  0  0
    4.3345   -0.5771    2.3578 C   0  0  0  0  0  3  0  0  0  0  0  0
    2.6150    1.0714    0.8087 C   0  0  0  0  0  3  0  0  0  0  0  0
    3.1408    1.8234    0.2584 H   0  0  0  0  0  0  0  0  0  0  0  0
    0.7820    0.6934    3.0962 Ir  0  0  0  0  0  0  0  0  0  0  0  0
    3.0420    0.6874    2.2033 Cl  0  0  0  0  0  0  0  0  0  0  0  0
    0.0397   -0.4112    2.4028 C   0  0  0  0  0  0  0  0  0  0  0  0
   -0.5290   -0.7560    1.5646 H   0  0  0  0  0  0  0  0  0  0  0  0
    0.0748   -0.1611    3.4425 H   0  0  0  0  0  0  0  0  0  0  0  0
    0.6390   -1.4559    1.8577 C   0  0  1  0  0  0  0  0  0  0  0  0
    1.4707   -0.8600    2.1711 H   0  0  0  0  0  0  0  0  0  0  0  0
    0.5702    2.8590    5.1260 C   0  0  2  0  0  0  0  0  0  0  0  0
    0.0947    3.8764    6.1503 C   0  0  0  0  0  0  0  0  0  0  0  0
   -0.8816    4.2229    5.8824 H   0  0  0  0  0  0  0  0  0  0  0  0
    0.0578    3.4186    7.1168 H   0  0  0  0  0  0  0  0  0  0  0  0
    0.7730    4.7035    6.1731 H   0  0  0  0  0  0  0  0  0  0  0  0
    1.2700    1.5486    5.4991 C   0  0  2  0  0  0  0  0  0  0  0  0
    2.0044    1.6967    6.8217 C   0  0  0  0  0  0  0  0  0  0  0  0
    1.4397    1.2243    7.5982 H   0  0  0  0  0  0  0  0  0  0  0  0
    2.9668    1.2347    6.7490 H   0  0  0  0  0  0  0  0  0  0  0  0
    2.1236    2.7354    7.0489 H   0  0  0  0  0  0  0  0  0  0  0  0
    0.7588    0.4533    4.5905 C   0  0  2  0  0  0  0  0  0  0  0  0
    0.6908   -0.7749    5.4833 C   0  0  0  0  0  0  0  0  0  0  0  0
    1.2262   -0.5870    6.3904 H   0  0  0  0  0  0  0  0  0  0  0  0
   -0.3314   -0.9940    5.7113 H   0  0  0  0  0  0  0  0  0  0  0  0
    1.1297   -1.6087    4.9763 H   0  0  0  0  0  0  0  0  0  0  0  0
    0.0940    2.0333    2.8109 C   0  0  2  0  0  0  0  0  0  0  0  0
   -0.7796    2.6328    1.7210 C   0  0  0  0  0  0  0  0  0  0  0  0
   -0.1688    2.9145    0.8888 H   0  0  0  0  0  0  0  0  0  0  0  0
   -1.5018    1.9095    1.4046 H   0  0  0  0  0  0  0  0  0  0  0  0
   -1.2831    3.4964    2.1024 H   0  0  0  0  0  0  0  0  0  0  0  0
    0.7666    3.1328    3.6336 C   0  0  2  0  0  0  0  0  0  0  0  0
    1.2004    4.5794    3.4621 C   0  0  0  0  0  0  0  0  0  0  0  0
    1.7125    4.9055    4.3432 H   0  0  0  0  0  0  0  0  0  0  0  0
    1.8551    4.6580    2.6194 H   0  0  0  0  0  0  0  0  0  0  0  0
    0.3386    5.1933    3.3027 H   0  0  0  0  0  0  0  0  0  0  0  0
  1  2  1  0  0  0  0
  2  3  1  0  0  0  0
  2 15  1  0  0  0  0
  3  5  1  0  0  0  0
  3  4  1  0  0  0  0
  5  6  1  0  0  0  0
  5 22  1  0  0  0  0
  6  7  1  0  0  0  0
  6 14  1  0  0  0  0
  7  8  1  0  0  0  0
  7 17  1  0  0  0  0
  8 10  1  0  0  0  0
  8  9  1  0  0  0  0
 10 12  1  0  0  0  0
 10 11  1  0  0  0  0
 12 14  1  0  0  0  0
 12 13  1  0  0  0  0
 14 15  1  0  0  0  0
 15 16  1  0  0  0  0
 17 19  1  0  0  0  0
 17 22  1  0  0  0  0
 17 24  1  0  0  0  0
 17 29  1  0  0  0  0
 17 34  1  0  0  0  0
 17 39  1  0  0  0  0
 17 44  1  0  0  0  0
 17 18  1  0  0  0  0
 19 22  2  0  0  0  0
 19 20  1  0  0  0  0
 19 21  1  0  0  0  0
 22 23  1  1  0  0  0
 24 29  1  0  0  0  0
 24 44  1  0  0  0  0
 24 25  1  6  0  0  0
 25 26  1  0  0  0  0
 25 27  1  0  0  0  0
 25 28  1  0  0  0  0
 29 34  1  0  0  0  0
 29 30  1  1  0  0  0
 30 31  1  0  0  0  0
 30 32  1  0  0  0  0
 30 33  1  0  0  0  0
 34 39  1  0  0  0  0
 34 35  1  1  0  0  0
 35 36  1  0  0  0  0
 35 37  1  0  0  0  0
 35 38  1  0  0  0  0
 39 44  1  0  0  0  0
 39 40  1  6  0  0  0
 40 41  1  0  0  0  0
 40 42  1  0  0  0  0
 40 43  1  0  0  0  0
 44 45  1  6  0  0  0
 45 46  1  0  0  0  0
 45 47  1  0  0  0  0
 45 48  1  0  0  0  0
M  END
$$$$
