
  --CCDC--092525    3D                              

 57 64  0  0  0  0  0  0  0  0999 V2000
    0.6776    2.0908   -3.4148 C      0
    1.8603    1.3820   -2.9461 C      0
    2.7775    0.8282   -2.5521 N      0
    4.5287   -0.2594   -1.7824 Fe     1
    3.2476   -0.0035   -0.0121 N      0
    2.5833    0.1294    0.9060 C      0
    1.7621    0.3169    2.0940 C      0
    5.7214   -1.1064   -0.1062 C      0
    5.6201   -2.5016    0.0791 N      0
    4.3028   -3.0953   -0.0317 C      0
    4.3709   -3.3562   -1.4508 N      0
    4.9549   -4.4842   -2.0286 C      0
    5.0325   -4.2341   -3.3344 C      0
    4.5023   -2.9558   -3.5406 N      0
    4.4352   -2.3262   -4.8497 C      0
    4.3318   -0.8782   -4.8329 N      0
    3.5405   -0.1335   -5.7134 C      0
    3.7550    1.1510   -5.4334 C      0
    4.6655    1.1725   -4.3748 N      0
    5.2029    2.3552   -3.7213 C      0
    6.3358    1.8976   -2.9430 N      0
    7.6808    1.9151   -3.3214 C      0
    8.3567    1.3363   -2.3276 C      0
    7.4130    0.9689   -1.3629 N      0
    7.6975    0.3492   -0.0831 C      0
    7.1307   -0.9867   -0.0477 N      0
    7.7938   -2.1996    0.1708 C      0
    6.8509   -3.1474    0.2397 C      0
    6.0721    1.3330   -1.6692 C      0
    5.1016   -0.1097   -3.9136 C      0
    3.9823   -2.3397   -2.3616 C      0
    0.9517    3.0424   -3.8655 H      0
   -0.0044    2.2901   -2.5909 H      0
    0.1460    1.5033   -4.1603 H      0
    0.7067    0.2036    1.8551 H      0
    1.9102    1.3103    2.5123 H      0
    2.0170   -0.4142    2.8584 H      0
    4.2182   -4.0198    0.5526 H      0
    3.5016   -2.3925    0.2239 H      0
    5.3239   -5.3645   -1.5128 H      0
    5.4548   -4.8865   -4.0915 H      0
    5.3320   -2.6050   -5.4166 H      0
    3.5719   -2.7330   -5.3906 H      0
    2.8899   -0.5263   -6.4879 H      0
    3.3097    2.0084   -5.9271 H      0
    5.5227    3.0934   -4.4671 H      0
    4.4475    2.8100   -3.0686 H      0
    8.0918    2.3071   -4.2459 H      0
    9.4289    1.1778   -2.2789 H      0
    8.7815    0.3007    0.0779 H      0
    7.2585    0.9537    0.7202 H      0
    8.8643   -2.3429    0.2738 H      0
    7.0110   -4.2112    0.3808 H      0
    5.3376   -0.6282    0.8082 H      0
    5.7382    2.1210   -0.9765 H      0
    6.1818   -0.2592   -4.0657 H      0
    2.8844   -2.3695   -2.4381 H      0
  1  2  1
  2  3  3
  3  4  1
  4  5  1
  5  6  3
  6  7  1
  4  8  1
  8  9  1
  9 10  1
 10 11  1
 11 12  1
 12 13  2
 13 14  1
 14 15  1
 15 16  1
 16 17  1
 17 18  2
 18 19  1
 19 20  1
 20 21  1
 21 22  1
 22 23  2
 23 24  1
 24 25  1
 25 26  1
  8 26  1
 26 27  1
 27 28  2
  9 28  1
 24 29  1
  4 29  1
 21 29  1
 19 30  1
  4 30  1
 16 30  1
 14 31  1
  4 31  1
 11 31  1
  1 32  1
  1 33  1
  1 34  1
  7 35  1
  7 36  1
  7 37  1
 10 38  1
 10 39  1
 12 40  1
 13 41  1
 15 42  1
 15 43  1
 17 44  1
 18 45  1
 20 46  1
 20 47  1
 22 48  1
 23 49  1
 25 50  1
 25 51  1
 27 52  1
 28 53  1
  8 54  1
 29 55  1
 30 56  1
 31 57  1
M  CHG  1   4   3
M  END
$$$$
