
 OpenBabel09252517013D

 73 85  0  0  0  0  0  0  0  0999 V2000
    1.0283    0.0313   -0.0907 Cl  0  0  0  0  0  0  0  0  0  0  0  0
    3.7983    0.0313   -0.0907 Zr  0  0  0  0  0  0  0  0  0  0  0  0
    5.4970   -0.0804   -2.2758 Cl  0  0  0  0  0  0  0  0  0  0  0  0
    1.8693    2.3176    2.2552 C   0  0  0  0  0  0  0  0  0  0  0  0
    4.4688    0.6272    1.5835 C   0  0  0  0  0  0  0  0  0  0  0  0
    4.0016   -0.4099    2.3297 C   0  0  0  0  0  0  0  0  0  0  0  0
    5.1933   -0.5263    2.9689 C   0  0  0  0  0  0  0  0  0  0  0  0
    6.2230    0.3448    2.7008 C   0  0  0  0  0  0  0  0  0  0  0  0
    5.9658    1.5426    2.0728 C   0  0  0  0  0  0  0  0  0  0  0  0
    4.7995    1.7392    1.4029 C   0  0  0  0  0  0  0  0  0  0  0  0
    3.7548    0.6612    1.3057 C   0  0  0  0  0  0  0  0  0  0  0  0
    2.3723    1.2809    1.5320 C   0  0  0  0  0  0  0  0  0  0  0  0
    1.3030    0.1924    1.4336 Si  0  0  0  0  0  0  0  0  0  0  0  0
   -0.3837    0.9476    1.7191 C   0  0  0  0  0  0  0  0  0  0  0  0
    1.6263   -1.1180    2.7279 C   0  0  0  0  0  0  0  0  0  0  0  0
    1.3489   -0.4429    0.0417 Si  0  0  0  0  0  0  0  0  0  0  0  0
    0.0428   -1.7757   -0.0799 C   0  0  0  0  0  0  0  0  0  0  0  0
    1.0233    0.8667   -1.2529 C   0  0  0  0  0  0  0  0  0  0  0  0
    2.7301   -1.0582   -0.1908 C   0  0  0  0  0  0  0  0  0  0  0  0
    6.6844   -2.2241   -0.7972 C   0  0  0  0  0  3  0  0  0  0  0  0
    5.2356   -1.8116   -0.5944 C   0  0  0  0  0  0  0  0  0  0  0  0
    4.2504   -2.7491   -0.6281 C   0  0  0  0  0  0  0  0  0  0  0  0
    4.5671   -4.0258   -0.8395 C   0  0  0  0  0  0  0  0  0  0  0  0
    3.6272   -4.9604   -0.8774 C   0  0  0  0  0  0  0  0  0  0  0  0
    2.2765   -4.5979   -0.6913 C   0  0  0  0  0  0  0  0  0  0  0  0
    1.9711   -3.2980   -0.4716 C   0  0  0  0  0  0  0  0  0  0  0  0
    2.9709   -2.3723   -0.4472 C   0  0  0  0  0  0  0  0  0  0  0  0
    4.8074   -0.0155   -0.2986 Si  0  0  0  0  0  0  0  0  0  0  0  0
    3.6607    0.5825   -1.6494 C   0  0  0  0  0  0  0  0  0  0  0  0
    3.9611    0.1586    1.3598 C   0  0  0  0  0  0  0  0  0  0  0  0
    6.3720    1.0085   -0.3107 C   0  0  0  0  0  0  0  0  0  0  0  0
    3.3555    1.4516    0.3275 Si  0  0  0  0  0  0  0  0  0  0  0  0
    2.8081    0.1923   -0.9420 C   0  0  0  0  0  0  0  0  0  0  0  0
    1.8552    2.1573    1.1924 C   0  0  0  0  0  0  0  0  0  0  0  0
    4.2897    2.8296   -0.5241 C   0  0  0  0  0  0  0  0  0  0  0  0
    5.3332   -1.3047    3.6896 H   0  0  0  0  0  0  0  0  0  0  0  0
    7.2243    0.0916    2.9802 H   0  0  0  0  0  0  0  0  0  0  0  0
    6.6919    2.3275    2.1126 H   0  0  0  0  0  0  0  0  0  0  0  0
    4.6202    2.6837    0.9332 H   0  0  0  0  0  0  0  0  0  0  0  0
   -1.1319    0.1857    1.6501 H   0  0  0  0  0  0  0  0  0  0  0  0
   -0.4156    1.3917    2.6921 H   0  0  0  0  0  0  0  0  0  0  0  0
   -0.5688    1.6974    0.9786 H   0  0  0  0  0  0  0  0  0  0  0  0
    2.5913   -1.5502    2.5646 H   0  0  0  0  0  0  0  0  0  0  0  0
    1.5944   -0.6738    3.7008 H   0  0  0  0  0  0  0  0  0  0  0  0
    0.8780   -1.8797    2.6589 H   0  0  0  0  0  0  0  0  0  0  0  0
   -0.9229   -1.3447    0.0831 H   0  0  0  0  0  0  0  0  0  0  0  0
    0.0757   -2.2195   -1.0530 H   0  0  0  0  0  0  0  0  0  0  0  0
    0.2284   -2.5255    0.6606 H   0  0  0  0  0  0  0  0  0  0  0  0
    1.7699    1.6301   -1.1836 H   0  0  0  0  0  0  0  0  0  0  0  0
    1.0565    0.4226   -2.2258 H   0  0  0  0  0  0  0  0  0  0  0  0
    0.0572    1.2969   -1.0900 H   0  0  0  0  0  0  0  0  0  0  0  0
    5.5917   -4.3002   -0.9804 H   0  0  0  0  0  0  0  0  0  0  0  0
    3.8914   -5.9831   -1.0479 H   0  0  0  0  0  0  0  0  0  0  0  0
    1.5056   -5.3392   -0.7234 H   0  0  0  0  0  0  0  0  0  0  0  0
    0.9549   -2.9999   -0.3187 H   0  0  0  0  0  0  0  0  0  0  0  0
    2.7654   -0.0034   -1.6425 H   0  0  0  0  0  0  0  0  0  0  0  0
    3.4156    1.6102   -1.4801 H   0  0  0  0  0  0  0  0  0  0  0  0
    4.1449    0.4828   -2.5983 H   0  0  0  0  0  0  0  0  0  0  0  0
    4.6173   -0.1835    2.1327 H   0  0  0  0  0  0  0  0  0  0  0  0
    3.7161    1.1864    1.5290 H   0  0  0  0  0  0  0  0  0  0  0  0
    3.0658   -0.4273    1.3667 H   0  0  0  0  0  0  0  0  0  0  0  0
    7.0282    0.6663    0.4622 H   0  0  0  0  0  0  0  0  0  0  0  0
    6.8562    0.9088   -1.2596 H   0  0  0  0  0  0  0  0  0  0  0  0
    6.1270    2.0362   -0.1414 H   0  0  0  0  0  0  0  0  0  0  0  0
    2.2736   -0.5962   -0.4547 H   0  0  0  0  0  0  0  0  0  0  0  0
    2.1711    0.6640   -1.6607 H   0  0  0  0  0  0  0  0  0  0  0  0
    3.6666   -0.2115   -1.4369 H   0  0  0  0  0  0  0  0  0  0  0  0
    2.1684    2.8779    1.9188 H   0  0  0  0  0  0  0  0  0  0  0  0
    1.2182    2.6290    0.4737 H   0  0  0  0  0  0  0  0  0  0  0  0
    1.3207    1.3688    1.6797 H   0  0  0  0  0  0  0  0  0  0  0  0
    4.6028    3.5502    0.2022 H   0  0  0  0  0  0  0  0  0  0  0  0
    5.1481    2.4258   -1.0191 H   0  0  0  0  0  0  0  0  0  0  0  0
    3.6526    3.3013   -1.2428 H   0  0  0  0  0  0  0  0  0  0  0  0
  1  2  1  0  0  0  0
  2  3  1  0  0  0  0
  2  4  1  0  0  0  0
  2  5  1  0  0  0  0
  2  6  1  0  0  0  0
  2 11  1  0  0  0  0
  2 12  1  0  0  0  0
  2 19  1  0  0  0  0
  2 20  1  0  0  0  0
  2 21  1  0  0  0  0
  2 22  1  0  0  0  0
  2 27  1  0  0  0  0
  4  5  1  0  0  0  0
  4 12  2  0  0  0  0
  5  6  2  0  0  0  0
  5 32  1  0  0  0  0
  6  7  1  0  0  0  0
  6 11  1  0  0  0  0
  7  8  2  0  0  0  0
  7 36  1  0  0  0  0
  8  9  1  0  0  0  0
  8 37  1  0  0  0  0
  9 10  2  0  0  0  0
  9 38  1  0  0  0  0
 10 11  1  0  0  0  0
 10 39  1  0  0  0  0
 11 12  1  0  0  0  0
 12 13  1  0  0  0  0
 13 14  1  0  0  0  0
 13 15  1  0  0  0  0
 13 16  1  0  0  0  0
 14 40  1  0  0  0  0
 14 41  1  0  0  0  0
 14 42  1  0  0  0  0
 15 43  1  0  0  0  0
 15 44  1  0  0  0  0
 15 45  1  0  0  0  0
 16 17  1  0  0  0  0
 16 18  1  0  0  0  0
 16 19  1  0  0  0  0
 17 46  1  0  0  0  0
 17 47  1  0  0  0  0
 17 48  1  0  0  0  0
 18 49  1  0  0  0  0
 18 50  1  0  0  0  0
 18 51  1  0  0  0  0
 19 20  1  0  0  0  0
 19 27  2  0  0  0  0
 20 21  1  0  0  0  0
 21 22  2  0  0  0  0
 21 28  1  0  0  0  0
 22 23  1  0  0  0  0
 22 27  1  0  0  0  0
 23 24  2  0  0  0  0
 23 52  1  0  0  0  0
 24 25  1  0  0  0  0
 24 53  1  0  0  0  0
 25 26  2  0  0  0  0
 25 54  1  0  0  0  0
 26 27  1  0  0  0  0
 26 55  1  0  0  0  0
 28 29  1  0  0  0  0
 28 30  1  0  0  0  0
 28 31  1  0  0  0  0
 29 56  1  0  0  0  0
 29 57  1  0  0  0  0
 29 58  1  0  0  0  0
 30 59  1  0  0  0  0
 30 60  1  0  0  0  0
 30 61  1  0  0  0  0
 31 62  1  0  0  0  0
 31 63  1  0  0  0  0
 31 64  1  0  0  0  0
 32 33  1  0  0  0  0
 32 34  1  0  0  0  0
 32 35  1  0  0  0  0
 33 65  1  0  0  0  0
 33 66  1  0  0  0  0
 33 67  1  0  0  0  0
 34 68  1  0  0  0  0
 34 69  1  0  0  0  0
 34 70  1  0  0  0  0
 35 71  1  0  0  0  0
 35 72  1  0  0  0  0
 35 73  1  0  0  0  0
M  END
$$$$
