
  --CCDC--092525    3D                              

 19 24  0  0  0  0  0  0  0  0999 V2000
   -0.0922    0.1100   -0.0376 H      0
   -1.6358    0.4127    0.0175 Si     0
   -3.0496   -0.9411    0.6785 Cl     0
   -3.2672    0.1141   -1.2147 Cl     0
   -3.4537    1.1266    0.6915 Cl     0
    0.6412    1.8851   -0.0213 Mn     0
    1.0696    0.8593   -2.0233 C      0
    1.2828    0.3489   -3.0194 O      0
   -0.8426    2.5701   -1.6252 C      0
   -1.5886    2.9108   -2.4165 O      0
    2.4650    3.0691    0.0204 C      0
    2.5915    2.0021    0.9326 C      0
    1.5667    2.2086    1.9237 C      0
    0.5120    3.2800    1.6152 C      0
   -0.7017    3.7903    2.3629 C      0
    1.3646    3.8739    0.4891 C      0
   -1.6161    3.3392    1.9828 H      0
   -0.7890    4.8690    2.2545 H      0
   -0.6318    3.5632    3.4245 H      0
  1  2  1
  2  3  1
  2  4  1
  2  5  1
  2  6  1
  1  6  1
  6  7  1
  7  8  3
  6  9  1
  9 10  3
  6 11  1
 11 12  4
  6 12  1
 12 13  4
  6 13  1
 13 14  4
  6 14  1
 14 15  1
 14 16  4
  6 16  1
 11 16  4
 15 17  1
 15 18  1
 15 19  1
M  END
$$$$
