
  --CCDC--092525    3D                              

 68 74  0  0  0  0  0  0  0  0999 V2000
   -1.7815   -0.0475    0.3231 C      0
   -0.9574    1.1355   -0.7098 S      0
   -1.1054    0.2846   -2.2588 C      0
    0.4363    1.0264   -0.3820 O      0
    1.0473    2.5982    1.6535 U      3
    0.5024    0.0874    2.2507 O      0
    0.7205   -0.1561    3.6233 C      0
    0.5920   -1.2617    4.1199 O      0
    1.0462    1.0413    4.5131 C      0
    2.0447    1.8438    3.8920 N      0
    2.2448    3.1540    4.5172 C      0
    1.4701    4.4872    4.1534 C      0
    0.7395    4.7928    2.9153 N      0
    1.1066    5.6982    1.8131 C      0
    2.0031    5.3686    0.5528 C      0
    1.8865    4.1352   -0.2328 N      0
    3.1411    3.5289   -0.6505 C      0
    3.3825    2.0275   -0.3084 C      0
    3.4758    1.8468    1.1145 N      0
    3.4230    0.6987    1.9779 C      0
    3.2410    1.1170    3.4762 C      0
    4.6249    2.5830    1.5253 C      0
    4.3101    3.8692    2.2557 C      0
    5.2252    4.5851    2.6240 O      0
    2.9691    4.1981    2.4930 O      0
    0.9521    4.1357   -1.3090 C      0
   -0.4855    4.3559   -0.8528 C      0
   -1.2316    5.0393   -1.5321 O      0
   -0.9414    3.6297    0.2647 O      0
   -1.2881    2.2641    2.8398 O      0
   -2.2115    3.2691    2.3975 S      0
   -3.7183    2.3798    2.1080 C      0
   -2.6834    4.1134    3.8841 C      0
   -1.7446    0.2580    1.3665 H      0
   -1.3136   -1.0262    0.2385 H      0
   -2.8266   -0.1459    0.0372 H      0
   -2.1480    0.2137   -2.5618 H      0
   -0.7048   -0.7242   -2.1845 H      0
   -0.5601    0.8091   -3.0406 H      0
    0.1411    1.6351    4.6904 H      0
    1.3961    0.6976    5.4944 H      0
    2.0410    2.9951    5.5834 H      0
    3.3233    3.3530    4.5382 H      0
    0.6946    4.5545    4.9264 H      0
    2.1227    5.3376    4.3899 H      0
   -0.2636    4.9359    3.1469 H      0
    0.1421    5.9963    1.3838 H      0
    1.4919    6.6229    2.2601 H      0
    1.7999    6.1791   -0.1580 H      0
    3.0609    5.5452    0.7788 H      0
    3.2022    3.6326   -1.7409 H      0
    3.9683    4.1451   -0.2798 H      0
    2.6189    1.3892   -0.7552 H      0
    4.3275    1.7072   -0.7645 H      0
    2.6550   -0.0014    1.6422 H      0
    4.3668    0.1479    1.8820 H      0
    4.1137    1.6959    3.8013 H      0
    3.2894    0.2024    4.0800 H      0
    5.2595    1.9521    2.1598 H      0
    5.2385    2.8126    0.6455 H      0
    1.2318    4.9076   -2.0366 H      0
    1.0139    3.1784   -1.8412 H      0
   -3.6047    1.6895    1.2747 H      0
   -4.5309    3.0640    1.8729 H      0
   -4.0023    1.8056    2.9874 H      0
   -3.0515    3.4089    4.6271 H      0
   -3.4712    4.8364    3.6834 H      0
   -1.8365    4.6453    4.3123 H      0
  1  2  1
  2  3  1
  2  4  2
  4  5  1
  5  6  1
  6  7  1
  7  8  2
  7  9  1
  9 10  1
  5 10  1
 10 11  1
 11 12  1
 12 13  1
  5 13  1
 13 14  1
 14 15  1
 15 16  1
  5 16  1
 16 17  1
 17 18  1
 18 19  1
  5 19  1
 19 20  1
 20 21  1
 10 21  1
 19 22  1
 22 23  1
 23 24  2
 23 25  1
  5 25  1
 16 26  1
 26 27  1
 27 28  2
 27 29  1
  5 29  1
  5 30  1
 30 31  2
 31 32  1
 31 33  1
  1 34  1
  1 35  1
  1 36  1
  3 37  1
  3 38  1
  3 39  1
  9 40  1
  9 41  1
 11 42  1
 11 43  1
 12 44  1
 12 45  1
 13 46  1
 14 47  1
 14 48  1
 15 49  1
 15 50  1
 17 51  1
 17 52  1
 18 53  1
 18 54  1
 20 55  1
 20 56  1
 21 57  1
 21 58  1
 22 59  1
 22 60  1
 26 61  1
 26 62  1
 32 63  1
 32 64  1
 32 65  1
 33 66  1
 33 67  1
 33 68  1
M  CHG  1   5   1
M  END
$$$$
