
 OpenBabel09252518373D

 43 45  0  0  0  0  0  0  0  0999 V2000
    0.9377    0.0425   -0.0657 C   0  0  0  0  0  0  0  0  0  0  0  0
    0.4310    0.0968    1.3664 C   0  0  0  0  0  0  0  0  0  0  0  0
    0.9210    1.3224    2.0134 N   0  0  0  0  0  4  0  0  0  0  0  0
    0.2310    2.9744    0.9743 Pt  0  0  0  0  0  0  0  0  0  0  0  0
   -1.1878    3.0210    1.4957 N   0  0  0  0  0  4  0  0  0  0  0  0
   -1.2442    4.7292    2.1632 C   0  0  0  0  0  0  0  0  0  0  0  0
   -2.3487    5.6238    1.6246 C   0  0  0  0  0  0  0  0  0  0  0  0
    0.4219    5.2022    1.7501 C   0  0  0  0  0  0  0  0  0  0  0  0
    1.0691    6.3007    1.9363 C   0  0  0  0  0  0  0  0  0  0  0  0
    2.4012    6.4249    1.5172 C   0  0  0  0  0  0  0  0  0  0  0  0
    3.0107    5.3321    0.8792 C   0  0  0  0  0  0  0  0  0  0  0  0
    2.3320    4.2000    0.6914 C   0  0  0  0  0  0  0  0  0  0  0  0
    0.9804    4.0781    1.1262 C   0  0  0  0  0  0  0  0  0  0  0  0
    0.3315    2.8565   -1.0899 N   0  0  0  0  0  0  0  0  0  0  0  0
   -0.0863    3.8628   -1.8274 C   0  0  0  0  0  0  0  0  0  0  0  0
   -0.4899    4.8348   -2.5398 O   0  0  0  0  0  0  0  0  0  0  0  0
   -1.0890    0.0968    1.3664 C   0  0  0  0  0  0  0  0  0  0  0  0
   -1.8127   -1.1256    1.4458 C   0  0  0  0  0  0  0  0  0  0  0  0
   -3.1850   -1.1344    1.1470 C   0  0  0  0  0  0  0  0  0  0  0  0
   -3.8412   -0.0142    1.0690 C   0  0  0  0  0  0  0  0  0  0  0  0
   -3.1832    1.2024    1.2933 C   0  0  0  0  0  0  0  0  0  0  0  0
   -1.7676    1.2429    1.2919 C   0  0  0  0  0  0  0  0  0  0  0  0
    0.5810    0.8964   -0.6028 H   0  0  0  0  0  0  0  0  0  0  0  0
    0.5810   -0.8497   -0.5366 H   0  0  0  0  0  0  0  0  0  0  0  0
    2.0077    0.0425   -0.0657 H   0  0  0  0  0  0  0  0  0  0  0  0
    0.7877   -0.7572    1.9035 H   0  0  0  0  0  0  0  0  0  0  0  0
    0.5810    1.3588    2.9744 H   0  0  0  0  0  0  0  0  0  0  0  0
    1.9410    1.3224    2.0134 H   0  0  0  0  0  0  0  0  0  0  0  0
   -1.9033    2.8134    0.7991 H   0  0  0  0  0  0  0  0  0  0  0  0
   -1.3434    2.3262    2.2261 H   0  0  0  0  0  0  0  0  0  0  0  0
   -1.4223    4.7477    3.2181 H   0  0  0  0  0  0  0  0  0  0  0  0
   -3.3008    5.2150    1.8914 H   0  0  0  0  0  0  0  0  0  0  0  0
   -2.2509    6.6032    2.0443 H   0  0  0  0  0  0  0  0  0  0  0  0
   -2.2719    5.6831    0.5590 H   0  0  0  0  0  0  0  0  0  0  0  0
    0.5852    7.1261    2.4153 H   0  0  0  0  0  0  0  0  0  0  0  0
    2.9424    7.3334    1.6802 H   0  0  0  0  0  0  0  0  0  0  0  0
    4.0234    5.4085    0.5425 H   0  0  0  0  0  0  0  0  0  0  0  0
    2.8082    3.3726    0.2082 H   0  0  0  0  0  0  0  0  0  0  0  0
   -1.3162   -2.0296    1.7304 H   0  0  0  0  0  0  0  0  0  0  0  0
   -3.6908   -2.0630    0.9834 H   0  0  0  0  0  0  0  0  0  0  0  0
   -4.8849   -0.0216    0.8333 H   0  0  0  0  0  0  0  0  0  0  0  0
   -3.7470    2.0955    1.4646 H   0  0  0  0  0  0  0  0  0  0  0  0
   -1.2507    2.1778    1.2321 H   0  0  0  0  0  0  0  0  0  0  0  0
  1  2  1  0  0  0  0
  1 23  1  0  0  0  0
  1 24  1  0  0  0  0
  1 25  1  0  0  0  0
  2  3  1  0  0  0  0
  2 17  1  0  0  0  0
  2 26  1  0  0  0  0
  3  4  1  0  0  0  0
  3 27  1  0  0  0  0
  3 28  1  0  0  0  0
  4  5  1  0  0  0  0
  4 13  1  0  0  0  0
  4 14  1  0  0  0  0
  5  6  1  0  0  0  0
  5 29  1  0  0  0  0
  5 30  1  0  0  0  0
  6  7  1  0  0  0  0
  6  8  1  0  0  0  0
  6 31  1  0  0  0  0
  7 32  1  0  0  0  0
  7 33  1  0  0  0  0
  7 34  1  0  0  0  0
  8  9  1  0  0  0  0
  8 13  2  0  0  0  0
  9 10  2  0  0  0  0
  9 35  1  0  0  0  0
 10 11  1  0  0  0  0
 10 36  1  0  0  0  0
 11 12  2  0  0  0  0
 11 37  1  0  0  0  0
 12 13  1  0  0  0  0
 12 38  1  0  0  0  0
 14 15  2  0  0  0  0
 15 16  2  0  0  0  0
 17 18  1  0  0  0  0
 17 22  2  0  0  0  0
 18 19  2  0  0  0  0
 18 39  1  0  0  0  0
 19 20  1  0  0  0  0
 19 40  1  0  0  0  0
 20 21  2  0  0  0  0
 20 41  1  0  0  0  0
 21 22  1  0  0  0  0
 21 42  1  0  0  0  0
 22 43  1  0  0  0  0
M  END
$$$$
