
     RDKit          3D

  0  0  0  0  0  0  0  0  0  0999 V3000
M  V30 BEGIN CTAB
M  V30 COUNTS 43 45 0 0 0
M  V30 BEGIN ATOM
M  V30 1 C 1.866930 -2.008054 -0.082339 0
M  V30 2 C 2.060957 -0.619815 -0.612041 0
M  V30 3 N 0.983468 0.259296 -0.209066 0
M  V30 4 Pt -0.657111 -0.583631 -0.272769 0 VAL=4
M  V30 5 N -1.512433 -0.812560 1.444168 0
M  V30 6 C -2.926283 -0.776419 1.171193 0
M  V30 7 C -3.793351 -0.769230 2.357907 0
M  V30 8 C -3.206635 0.313363 0.205071 0
M  V30 9 C -4.360040 1.069515 0.090683 0
M  V30 10 C -4.439109 2.012059 -0.931279 0
M  V30 11 C -3.397757 2.208523 -1.827818 0
M  V30 12 C -2.231941 1.476694 -1.745829 0
M  V30 13 C -2.201237 0.575921 -0.739046 0
M  V30 14 N -0.642473 -2.221349 -1.225608 0
M  V30 15 C -1.479296 -2.477145 -2.103703 0
M  V30 16 O -2.392591 -2.872499 -2.806889 0
M  V30 17 C 3.339911 0.008309 -0.220174 0
M  V30 18 C 3.417982 1.396746 -0.381127 0
M  V30 19 C 4.573427 2.120859 -0.058428 0
M  V30 20 C 5.632181 1.388294 0.428712 0
M  V30 21 C 5.644799 0.024959 0.618648 0
M  V30 22 C 4.467675 -0.608671 0.275360 0
M  V30 23 H 1.677521 -2.699418 -0.936063 0
M  V30 24 H 0.914366 -2.006841 0.525185 0
M  V30 25 H 2.645667 -2.377879 0.589171 0
M  V30 26 H 2.053656 -0.632280 -1.741147 0
M  V30 27 H 1.179084 0.676063 0.709430 0
M  V30 28 H 0.919469 1.027608 -0.931218 0
M  V30 29 H -1.194131 -1.732104 1.819073 0
M  V30 30 H -1.146538 -0.100270 2.076647 0
M  V30 31 H -3.169375 -1.718708 0.585276 0
M  V30 32 H -3.546963 -1.668906 2.988629 0
M  V30 33 H -4.845199 -0.948060 2.032270 0
M  V30 34 H -3.769930 0.152836 2.955648 0
M  V30 35 H -5.138651 0.882876 0.806739 0
M  V30 36 H -5.338055 2.605673 -1.027226 0
M  V30 37 H -3.433440 2.933093 -2.633875 0
M  V30 38 H -1.347135 1.519021 -2.363618 0
M  V30 39 H 2.634911 2.073133 -0.758861 0
M  V30 40 H 4.677222 3.175895 -0.165260 0
M  V30 41 H 6.549305 1.931055 0.689337 0
M  V30 42 H 6.477760 -0.531595 0.997689 0
M  V30 43 H 4.453385 -1.666356 0.406551 0
M  V30 END ATOM
M  V30 BEGIN BOND
M  V30 1 1 1 2
M  V30 2 1 2 3
M  V30 3 9 3 4
M  V30 4 9 5 4
M  V30 5 1 5 6
M  V30 6 1 6 7
M  V30 7 1 6 8
M  V30 8 2 8 9
M  V30 9 1 9 10
M  V30 10 2 10 11
M  V30 11 1 11 12
M  V30 12 2 12 13
M  V30 13 1 4 14
M  V30 14 2 14 15
M  V30 15 2 15 16
M  V30 16 1 2 17
M  V30 17 2 17 18
M  V30 18 1 18 19
M  V30 19 2 19 20
M  V30 20 1 20 21
M  V30 21 2 21 22
M  V30 22 1 13 4
M  V30 23 1 22 17
M  V30 24 1 13 8
M  V30 25 1 1 23
M  V30 26 1 1 24
M  V30 27 1 1 25
M  V30 28 1 2 26
M  V30 29 1 3 27
M  V30 30 1 3 28
M  V30 31 1 5 29
M  V30 32 1 5 30
M  V30 33 1 6 31
M  V30 34 1 7 32
M  V30 35 1 7 33
M  V30 36 1 7 34
M  V30 37 1 9 35
M  V30 38 1 10 36
M  V30 39 1 11 37
M  V30 40 1 12 38
M  V30 41 1 18 39
M  V30 42 1 19 40
M  V30 43 1 20 41
M  V30 44 1 21 42
M  V30 45 1 22 43
M  V30 END BOND
M  V30 END CTAB
M  END
