
 OpenBabel09252516163D

 32 35  0  0  0  0  0  0  0  0999 V2000
    1.7603    1.1262   -0.8857 H   0  0  0  0  0  0  0  0  0  0  0  0
    2.2968    0.3527   -0.3471 C   0  0  0  0  0  3  0  0  0  0  0  0
    1.6956   -0.9623   -0.2285 C   0  0  0  0  0  3  0  0  0  0  0  0
    0.7192   -1.1499   -0.6595 H   0  0  0  0  0  0  0  0  0  0  0  0
    2.5069   -2.0759    0.2230 C   0  0  0  0  0  3  0  0  0  0  0  0
    2.0497   -3.0489    0.3484 H   0  0  0  0  0  0  0  0  0  0  0  0
    3.9331   -1.8905    0.4226 C   0  0  0  0  0  3  0  0  0  0  0  0
    4.5654   -0.5530    0.4540 C   0  0  0  0  0  3  0  0  0  0  0  0
    3.7226    0.5339   -0.0910 C   0  0  0  0  0  3  0  0  0  0  0  0
    4.1945    1.3485   -0.6224 H   0  0  0  0  0  0  0  0  0  0  0  0
    6.0091   -0.4477    0.8025 C   0  0  0  0  0  0  0  0  0  0  0  0
    6.7359   -1.5985    0.7663 C   0  0  0  0  0  0  0  0  0  0  0  0
    6.1083   -2.9265    0.4719 C   0  0  0  0  0  0  0  0  0  0  0  0
    6.7763   -3.9491    0.3389 O   0  0  0  0  0  0  0  0  0  0  0  0
    4.7477   -2.9785    0.4137 N   0  0  0  0  0  0  0  0  0  0  0  0
    4.3598   -3.9006    0.2684 H   0  0  0  0  0  0  0  0  0  0  0  0
    8.2111   -1.6674    1.0785 C   0  0  0  0  0  0  0  0  0  0  0  0
    8.7701   -1.4616    0.1562 H   0  0  0  0  0  0  0  0  0  0  0  0
    8.5094   -2.6698    1.4065 H   0  0  0  0  0  0  0  0  0  0  0  0
    8.6249   -0.6952    2.1742 C   0  0  0  0  0  0  0  0  0  0  0  0
    9.7203   -0.6580    2.2170 H   0  0  0  0  0  0  0  0  0  0  0  0
    8.2805   -1.0674    3.1477 H   0  0  0  0  0  0  0  0  0  0  0  0
    8.0548    0.6656    1.9509 C   0  0  0  0  0  3  0  0  0  0  0  0
    8.7343    1.8125    2.5421 C   0  0  0  0  0  3  0  0  0  0  0  0
    9.6931    1.6893    3.0313 H   0  0  0  0  0  0  0  0  0  0  0  0
    8.0923    3.1089    2.5619 C   0  0  0  0  0  3  0  0  0  0  0  0
    8.5513    3.9378    3.0855 H   0  0  0  0  0  0  0  0  0  0  0  0
    6.7931    3.2628    1.9476 C   0  0  0  0  0  3  0  0  0  0  0  0
    6.2612    4.2025    2.0307 H   0  0  0  0  0  0  0  0  0  0  0  0
    6.2035    2.1626    1.1994 C   0  0  0  0  0  3  0  0  0  0  0  0
    5.5201    2.4478    0.4170 H   0  0  0  0  0  0  0  0  0  0  0  0
    6.7175    0.7795    1.2957 C   0  0  0  0  0  3  0  0  0  0  0  0
  1  2  1  0  0  0  0
  2  3  1  0  0  0  0
  2  9  1  0  0  0  0
  3  4  1  0  0  0  0
  3  5  1  0  0  0  0
  5  6  1  0  0  0  0
  5  7  1  0  0  0  0
  7  8  1  0  0  0  0
  7 15  1  0  0  0  0
  8  9  1  0  0  0  0
  8 11  1  0  0  0  0
  9 10  1  0  0  0  0
 11 12  2  0  0  0  0
 11 32  1  0  0  0  0
 12 13  1  0  0  0  0
 12 17  1  0  0  0  0
 13 14  2  0  0  0  0
 13 15  1  0  0  0  0
 15 16  1  0  0  0  0
 17 18  1  0  0  0  0
 17 19  1  0  0  0  0
 17 20  1  0  0  0  0
 20 21  1  0  0  0  0
 20 22  1  0  0  0  0
 20 23  1  0  0  0  0
 23 24  1  0  0  0  0
 23 32  1  0  0  0  0
 24 25  1  0  0  0  0
 24 26  1  0  0  0  0
 26 27  1  0  0  0  0
 26 28  1  0  0  0  0
 28 29  1  0  0  0  0
 28 30  1  0  0  0  0
 30 31  1  0  0  0  0
 30 32  1  0  0  0  0
M  END
$$$$
