
 OpenBabel09252517203D

 62 63  0  0  0  0  0  0  0  0999 V2000
    0.9537    0.0729    0.0504 C   0  0  0  0  0  0  0  0  0  0  0  0
    0.2470   -1.2946   -1.4073 Pt  0  0  0  0  0  0  0  0  0  0  0  0
    1.9780   -2.4864   -1.1284 C   0  0  0  0  0  0  0  0  0  0  0  0
   -0.7523   -2.3918    0.1065 C   0  0  0  0  0  0  0  0  0  0  0  0
   -0.4430   -2.6298   -2.8307 N   0  0  0  0  0  0  0  0  0  0  0  0
    0.4994   -3.9664   -3.3976 N   0  0  0  0  0  0  0  0  0  0  0  0
   -0.6272   -4.6141   -4.6045 C   0  0  0  0  0  0  0  0  0  0  0  0
   -0.4171   -5.8488   -5.4361 C   0  0  0  0  0  0  0  0  0  0  0  0
   -1.2432   -6.9769   -4.7915 C   0  0  0  0  0  0  0  0  0  0  0  0
   -2.6907   -6.4924   -4.6542 C   0  0  0  0  0  0  0  0  0  0  0  0
   -3.1693   -6.2336   -6.0674 C   0  0  0  0  0  0  0  0  0  0  0  0
   -2.7680   -4.8759   -6.6138 C   0  0  0  0  0  0  0  0  0  0  0  0
   -2.8711   -3.7811   -5.5604 C   0  0  0  0  0  0  0  0  0  0  0  0
   -1.6803   -3.7764   -4.6036 C   0  0  0  0  0  0  0  0  0  0  0  0
   -1.5886   -2.7090   -3.6002 N   0  0  0  0  0  0  0  0  0  0  0  0
   -1.7370    0.0715   -1.7270 P   0  0  0  0  0  4  0  0  0  0  0  0
   -1.3304    1.8247   -1.3958 C   0  0  0  0  0  0  0  0  0  0  0  0
   -2.3265   -0.1029   -3.4507 C   0  0  0  0  0  0  0  0  0  0  0  0
   -3.0484   -0.4786   -0.5752 C   0  0  0  0  0  0  0  0  0  0  0  0
    1.3926   -0.0369   -3.1425 P   0  0  0  0  0  4  0  0  0  0  0  0
    0.7477    1.6753   -3.1815 C   0  0  0  0  0  0  0  0  0  0  0  0
    3.1877   -0.0047   -2.7883 C   0  0  0  0  0  0  0  0  0  0  0  0
    1.1050   -0.8341   -4.7644 C   0  0  0  0  0  0  0  0  0  0  0  0
    0.5971   -0.2192    1.0160 H   0  0  0  0  0  0  0  0  0  0  0  0
    0.5971    1.0552   -0.1795 H   0  0  0  0  0  0  0  0  0  0  0  0
    2.0237    0.0729    0.0504 H   0  0  0  0  0  0  0  0  0  0  0  0
    2.3227   -2.3844   -0.1206 H   0  0  0  0  0  0  0  0  0  0  0  0
    1.7402   -3.5115   -1.3221 H   0  0  0  0  0  0  0  0  0  0  0  0
    2.7448   -2.1647   -1.8019 H   0  0  0  0  0  0  0  0  0  0  0  0
   -1.8019   -2.4107   -0.1006 H   0  0  0  0  0  0  0  0  0  0  0  0
   -0.3753   -3.3929    0.1293 H   0  0  0  0  0  0  0  0  0  0  0  0
   -0.5842   -1.9257    1.0548 H   0  0  0  0  0  0  0  0  0  0  0  0
   -0.7245   -5.6827   -6.4475 H   0  0  0  0  0  0  0  0  0  0  0  0
    0.6198   -6.1127   -5.4453 H   0  0  0  0  0  0  0  0  0  0  0  0
   -0.8437   -7.2246   -3.8303 H   0  0  0  0  0  0  0  0  0  0  0  0
   -1.2104   -7.8490   -5.4107 H   0  0  0  0  0  0  0  0  0  0  0  0
   -2.7584   -5.6144   -4.0463 H   0  0  0  0  0  0  0  0  0  0  0  0
   -3.2933   -7.2433   -4.1874 H   0  0  0  0  0  0  0  0  0  0  0  0
   -2.7059   -6.9688   -6.6916 H   0  0  0  0  0  0  0  0  0  0  0  0
   -4.2372   -6.2991   -6.0787 H   0  0  0  0  0  0  0  0  0  0  0  0
   -1.7469   -4.9359   -6.9278 H   0  0  0  0  0  0  0  0  0  0  0  0
   -3.4120   -4.6292   -7.4319 H   0  0  0  0  0  0  0  0  0  0  0  0
   -2.8831   -2.8400   -6.0695 H   0  0  0  0  0  0  0  0  0  0  0  0
   -3.7660   -3.9331   -4.9938 H   0  0  0  0  0  0  0  0  0  0  0  0
   -0.5636    2.1464   -2.0693 H   0  0  0  0  0  0  0  0  0  0  0  0
   -2.2040    2.4262   -1.5366 H   0  0  0  0  0  0  0  0  0  0  0  0
   -0.9857    1.9267   -0.3880 H   0  0  0  0  0  0  0  0  0  0  0  0
   -2.5643   -1.1280   -3.6443 H   0  0  0  0  0  0  0  0  0  0  0  0
   -3.2002    0.4986   -3.5914 H   0  0  0  0  0  0  0  0  0  0  0  0
   -1.5597    0.2187   -4.1241 H   0  0  0  0  0  0  0  0  0  0  0  0
   -3.2862   -1.5037   -0.7689 H   0  0  0  0  0  0  0  0  0  0  0  0
   -2.7038   -0.3766    0.4326 H   0  0  0  0  0  0  0  0  0  0  0  0
   -3.9221    0.1229   -0.7160 H   0  0  0  0  0  0  0  0  0  0  0  0
    0.9158    2.1414   -2.2331 H   0  0  0  0  0  0  0  0  0  0  0  0
    1.2521    2.2291   -3.9455 H   0  0  0  0  0  0  0  0  0  0  0  0
   -0.3019    1.6565   -3.3885 H   0  0  0  0  0  0  0  0  0  0  0  0
    3.5647   -1.0058   -2.7656 H   0  0  0  0  0  0  0  0  0  0  0  0
    3.6921    0.5492   -3.5524 H   0  0  0  0  0  0  0  0  0  0  0  0
    3.3558    0.4615   -1.8400 H   0  0  0  0  0  0  0  0  0  0  0  0
    1.4821   -1.8352   -4.7417 H   0  0  0  0  0  0  0  0  0  0  0  0
    0.0554   -0.8529   -4.9715 H   0  0  0  0  0  0  0  0  0  0  0  0
    1.6094   -0.2802   -5.5285 H   0  0  0  0  0  0  0  0  0  0  0  0
  1  2  1  0  0  0  0
  1 24  1  0  0  0  0
  1 25  1  0  0  0  0
  1 26  1  0  0  0  0
  2  3  1  0  0  0  0
  2  4  1  0  0  0  0
  2  5  1  0  0  0  0
  2 16  1  0  0  0  0
  2 20  1  0  0  0  0
  3 27  1  0  0  0  0
  3 28  1  0  0  0  0
  3 29  1  0  0  0  0
  4 30  1  0  0  0  0
  4 31  1  0  0  0  0
  4 32  1  0  0  0  0
  5  6  1  0  0  0  0
  5 15  1  0  0  0  0
  6  7  2  0  0  0  0
  7  8  1  0  0  0  0
  7 14  1  0  0  0  0
  8  9  1  0  0  0  0
  8 33  1  0  0  0  0
  8 34  1  0  0  0  0
  9 10  1  0  0  0  0
  9 35  1  0  0  0  0
  9 36  1  0  0  0  0
 10 11  1  0  0  0  0
 10 37  1  0  0  0  0
 10 38  1  0  0  0  0
 11 12  1  0  0  0  0
 11 39  1  0  0  0  0
 11 40  1  0  0  0  0
 12 13  1  0  0  0  0
 12 41  1  0  0  0  0
 12 42  1  0  0  0  0
 13 14  1  0  0  0  0
 13 43  1  0  0  0  0
 13 44  1  0  0  0  0
 14 15  2  0  0  0  0
 16 17  1  0  0  0  0
 16 18  1  0  0  0  0
 16 19  1  0  0  0  0
 17 45  1  0  0  0  0
 17 46  1  0  0  0  0
 17 47  1  0  0  0  0
 18 48  1  0  0  0  0
 18 49  1  0  0  0  0
 18 50  1  0  0  0  0
 19 51  1  0  0  0  0
 19 52  1  0  0  0  0
 19 53  1  0  0  0  0
 20 21  1  0  0  0  0
 20 22  1  0  0  0  0
 20 23  1  0  0  0  0
 21 54  1  0  0  0  0
 21 55  1  0  0  0  0
 21 56  1  0  0  0  0
 22 57  1  0  0  0  0
 22 58  1  0  0  0  0
 22 59  1  0  0  0  0
 23 60  1  0  0  0  0
 23 61  1  0  0  0  0
 23 62  1  0  0  0  0
M  END
$$$$
