
 OpenBabel08122501103D

 44 49  0  0  0  0  0  0  0  0999 V2000
    1.0456   -0.0601    0.0656 C   0  0  0  0  0  0  0  0  0  0  0  0
    0.5389   -1.4473   -0.2944 C   0  0  0  0  0  0  0  0  0  0  0  0
    0.4242   -4.3298    1.3346 C   0  0  0  0  0  0  0  0  0  0  0  0
    0.0253   -2.8805   -0.2305 Ir  0  0  0  0  0  0  0  0  0  0  0  0
   -2.0283   -1.4018   -1.3953 C   0  0  0  0  0  0  0  0  0  0  0  0
   -0.8575   -1.7891   -0.8210 C   0  0  0  0  0  0  0  0  0  0  0  0
   -0.3048   -3.5495    1.0786 C   0  0  0  0  0  0  0  0  0  0  0  0
   -0.8627   -3.0998    2.2493 C   0  0  0  0  0  0  0  0  0  0  0  0
   -1.2843   -1.6455    2.3827 C   0  0  0  0  0  0  0  0  0  0  0  0
    0.7393   -4.8072   -1.6191 P   0  0  0  0  0  4  0  0  0  0  0  0
   -0.3826   -6.2221   -1.3222 C   0  0  0  0  0  0  0  0  0  0  0  0
   -1.6256   -5.8780   -1.6470 F   0  0  0  0  0  0  0  0  0  0  0  0
    0.0003   -7.2554   -2.0669 F   0  0  0  0  0  0  0  0  0  0  0  0
   -0.3379   -6.5612   -0.0370 F   0  0  0  0  0  0  0  0  0  0  0  0
    0.6779   -4.3405   -3.3875 C   0  0  0  0  0  0  0  0  0  0  0  0
   -0.5651   -3.9965   -3.7123 F   0  0  0  0  0  0  0  0  0  0  0  0
    1.4933   -3.3122   -3.6033 F   0  0  0  0  0  0  0  0  0  0  0  0
    1.0608   -5.3738   -4.1323 F   0  0  0  0  0  0  0  0  0  0  0  0
   -1.0423   -3.9824    3.3192 C   0  0  0  0  0  0  0  0  0  0  0  0
   -0.6613   -5.3195    3.1792 C   0  0  0  0  0  0  0  0  0  0  0  0
   -0.1093   -5.7627    1.9995 C   0  0  0  0  0  0  0  0  0  0  0  0
    0.0770   -4.8818    0.9335 C   0  0  0  0  0  0  0  0  0  0  0  0
    0.6085   -5.0946   -0.3388 C   0  0  0  0  0  0  0  0  0  0  0  0
    0.6147   -3.9738   -1.0838 P   0  0  0  0  0  4  0  0  0  0  0  0
    2.3133   -3.5482   -1.6154 C   0  0  0  0  0  0  0  0  0  0  0  0
    2.8083   -4.5384   -2.3527 F   0  0  0  0  0  0  0  0  0  0  0  0
    2.2855   -2.4304   -2.3356 F   0  0  0  0  0  0  0  0  0  0  0  0
    3.0807   -3.3666   -0.5444 F   0  0  0  0  0  0  0  0  0  0  0  0
   -0.3975   -4.2126   -2.5895 C   0  0  0  0  0  0  0  0  0  0  0  0
   -1.6361   -4.5505   -2.2422 F   0  0  0  0  0  0  0  0  0  0  0  0
   -0.4260   -3.0815   -3.2886 F   0  0  0  0  0  0  0  0  0  0  0  0
    0.1340   -5.1795   -3.3323 F   0  0  0  0  0  0  0  0  0  0  0  0
    0.6889    0.2086    1.0380 H   0  0  0  0  0  0  0  0  0  0  0  0
    0.6889    0.6476   -0.6533 H   0  0  0  0  0  0  0  0  0  0  0  0
    2.1156   -0.0601    0.0656 H   0  0  0  0  0  0  0  0  0  0  0  0
    0.0069   -5.3130    1.2722 H   0  0  0  0  0  0  0  0  0  0  0  0
   -2.7974   -2.1223   -1.5805 H   0  0  0  0  0  0  0  0  0  0  0  0
   -2.0221   -1.4187    1.6417 H   0  0  0  0  0  0  0  0  0  0  0  0
   -1.6950   -1.4812    3.3570 H   0  0  0  0  0  0  0  0  0  0  0  0
   -1.4682   -3.6365    4.2378 H   0  0  0  0  0  0  0  0  0  0  0  0
   -0.7994   -6.0011    3.9923 H   0  0  0  0  0  0  0  0  0  0  0  0
    0.1786   -6.7883    1.8989 H   0  0  0  0  0  0  0  0  0  0  0  0
    1.6226   -5.4146   -0.2205 H   0  0  0  0  0  0  0  0  0  0  0  0
    0.0203   -5.8362   -0.8378 H   0  0  0  0  0  0  0  0  0  0  0  0
  1  2  1  0  0  0  0
  1 33  1  0  0  0  0
  1 34  1  0  0  0  0
  1 35  1  0  0  0  0
  2  3  2  0  0  0  0
  2  4  1  0  0  0  0
  2  6  1  0  0  0  0
  3  4  1  0  0  0  0
  3 36  1  0  0  0  0
  4  5  1  0  0  0  0
  4  6  1  0  0  0  0
  4  7  1  0  0  0  0
  4 10  1  0  0  0  0
  4 24  1  0  0  0  0
  5  6  2  0  0  0  0
  5 37  1  0  0  0  0
  7  8  1  0  0  0  0
  7 22  2  0  0  0  0
  8  9  1  0  0  0  0
  8 19  2  0  0  0  0
  9 10  1  0  0  0  0
  9 38  1  0  0  0  0
  9 39  1  0  0  0  0
 10 11  1  0  0  0  0
 10 15  1  0  0  0  0
 11 12  1  0  0  0  0
 11 13  1  0  0  0  0
 11 14  1  0  0  0  0
 15 16  1  0  0  0  0
 15 17  1  0  0  0  0
 15 18  1  0  0  0  0
 19 20  1  0  0  0  0
 19 40  1  0  0  0  0
 20 21  2  0  0  0  0
 20 41  1  0  0  0  0
 21 22  1  0  0  0  0
 21 42  1  0  0  0  0
 22 23  1  0  0  0  0
 23 24  1  0  0  0  0
 23 43  1  0  0  0  0
 23 44  1  0  0  0  0
 24 25  1  0  0  0  0
 24 29  1  0  0  0  0
 25 26  1  0  0  0  0
 25 27  1  0  0  0  0
 25 28  1  0  0  0  0
 29 30  1  0  0  0  0
 29 31  1  0  0  0  0
 29 32  1  0  0  0  0
M  END
$$$$
