
 OpenBabel08122501103D

 73 85  0  0  0  0  0  0  0  0999 V2000
    1.0160   -0.0693    0.0703 Cl  0  0  0  0  0  0  0  0  0  0  0  0
    3.7860   -0.0693    0.0703 Zr  0  0  0  0  0  0  0  0  0  0  0  0
    4.2623   -1.1511    2.5754 Cl  0  0  0  0  0  0  0  0  0  0  0  0
    1.4869    2.4225    1.3152 C   0  0  0  0  0  0  0  0  0  0  0  0
    2.4716   -1.8395   -0.2121 C   0  0  0  0  0  0  0  0  0  0  0  0
    1.8280   -1.3382    0.8766 C   0  0  0  0  0  0  0  0  0  0  0  0
    1.9265   -2.4482    1.6516 C   0  0  0  0  0  0  0  0  0  0  0  0
    2.8109   -2.4952    2.7035 C   0  0  0  0  0  0  0  0  0  0  0  0
    3.3380   -1.3297    3.2125 C   0  0  0  0  0  0  0  0  0  0  0  0
    3.2886   -0.1747    2.4976 C   0  0  0  0  0  0  0  0  0  0  0  0
    2.6753   -0.1228    1.1249 C   0  0  0  0  0  0  0  0  0  0  0  0
    1.8134    1.1381    1.0080 C   0  0  0  0  0  0  0  0  0  0  0  0
    1.1868    1.2004   -0.3852 Si  0  0  0  0  0  0  0  0  0  0  0  0
    0.1272    2.7349   -0.5244 C   0  0  0  0  0  0  0  0  0  0  0  0
    0.1270   -0.3156   -0.6605 C   0  0  0  0  0  0  0  0  0  0  0  0
    2.2943    1.2473   -1.4408 Si  0  0  0  0  0  0  0  0  0  0  0  0
    1.5296    1.3217   -3.1456 C   0  0  0  0  0  0  0  0  0  0  0  0
    3.3528    2.7644   -1.1673 C   0  0  0  0  0  0  0  0  0  0  0  0
    3.1612   -0.0078   -1.3239 C   0  0  0  0  0  0  0  0  0  0  0  0
    5.7305   -3.2308   -0.5909 C   0  0  0  0  0  3  0  0  0  0  0  0
    4.8303   -2.0422   -0.8862 C   0  0  0  0  0  0  0  0  0  0  0  0
    4.1418   -1.9849   -2.0581 C   0  0  0  0  0  0  0  0  0  0  0  0
    4.2643   -2.9763   -2.9396 C   0  0  0  0  0  0  0  0  0  0  0  0
    3.6049   -2.9464   -4.0897 C   0  0  0  0  0  0  0  0  0  0  0  0
    2.7642   -1.8519   -4.3824 C   0  0  0  0  0  0  0  0  0  0  0  0
    2.6455   -0.8555   -3.4746 C   0  0  0  0  0  0  0  0  0  0  0  0
    3.3476   -0.9276   -2.3088 C   0  0  0  0  0  0  0  0  0  0  0  0
    4.6691   -0.6586    0.3615 Si  0  0  0  0  0  0  0  0  0  0  0  0
    5.2296    0.9482   -0.4137 C   0  0  0  0  0  0  0  0  0  0  0  0
    2.8831   -0.5043    0.8938 C   0  0  0  0  0  0  0  0  0  0  0  0
    5.7334   -1.0362    1.8520 C   0  0  0  0  0  0  0  0  0  0  0  0
    2.7020   -0.7769   -1.7335 Si  0  0  0  0  0  0  0  0  0  0  0  0
    1.0297   -0.2631   -2.3941 C   0  0  0  0  0  0  0  0  0  0  0  0
    3.6902    0.7463   -1.2861 C   0  0  0  0  0  0  0  0  0  0  0  0
    3.6164   -1.7513   -3.0417 C   0  0  0  0  0  0  0  0  0  0  0  0
    1.3089   -3.2964    1.4416 H   0  0  0  0  0  0  0  0  0  0  0  0
    3.0895   -3.4377    3.1264 H   0  0  0  0  0  0  0  0  0  0  0  0
    3.7916   -1.3331    4.1816 H   0  0  0  0  0  0  0  0  0  0  0  0
    3.6958    0.7194    2.9215 H   0  0  0  0  0  0  0  0  0  0  0  0
   -0.3112    2.7784   -1.4995 H   0  0  0  0  0  0  0  0  0  0  0  0
   -0.6469    2.7019    0.2135 H   0  0  0  0  0  0  0  0  0  0  0  0
    0.7334    3.6024   -0.3669 H   0  0  0  0  0  0  0  0  0  0  0  0
    0.7332   -1.1937   -0.5810 H   0  0  0  0  0  0  0  0  0  0  0  0
   -0.6470   -0.3485    0.0775 H   0  0  0  0  0  0  0  0  0  0  0  0
   -0.3115   -0.2720   -1.6356 H   0  0  0  0  0  0  0  0  0  0  0  0
    0.9232    2.1996   -3.2265 H   0  0  0  0  0  0  0  0  0  0  0  0
    2.3043    1.3542   -3.8830 H   0  0  0  0  0  0  0  0  0  0  0  0
    0.9237    0.4539   -3.3029 H   0  0  0  0  0  0  0  0  0  0  0  0
    3.7904    2.7229   -0.1917 H   0  0  0  0  0  0  0  0  0  0  0  0
    4.1276    2.7964   -1.9046 H   0  0  0  0  0  0  0  0  0  0  0  0
    2.7462    3.6421   -1.2491 H   0  0  0  0  0  0  0  0  0  0  0  0
    4.9020   -3.8062   -2.7170 H   0  0  0  0  0  0  0  0  0  0  0  0
    3.7099   -3.7474   -4.7914 H   0  0  0  0  0  0  0  0  0  0  0  0
    2.2288   -1.8104   -5.3079 H   0  0  0  0  0  0  0  0  0  0  0  0
    2.0069   -0.0195   -3.6700 H   0  0  0  0  0  0  0  0  0  0  0  0
    4.6206    1.1643   -1.2665 H   0  0  0  0  0  0  0  0  0  0  0  0
    5.1373    1.7399    0.3002 H   0  0  0  0  0  0  0  0  0  0  0  0
    6.2515    0.8599   -0.7183 H   0  0  0  0  0  0  0  0  0  0  0  0
    2.5624   -1.4237    1.3374 H   0  0  0  0  0  0  0  0  0  0  0  0
    2.7909    0.2874    1.6077 H   0  0  0  0  0  0  0  0  0  0  0  0
    2.2741   -0.2882    0.0410 H   0  0  0  0  0  0  0  0  0  0  0  0
    5.4127   -1.9557    2.2955 H   0  0  0  0  0  0  0  0  0  0  0  0
    6.7553   -1.1246    1.5474 H   0  0  0  0  0  0  0  0  0  0  0  0
    5.6411   -0.2446    2.5659 H   0  0  0  0  0  0  0  0  0  0  0  0
    0.5064    0.2944   -1.6455 H   0  0  0  0  0  0  0  0  0  0  0  0
    1.1615    0.3449   -3.2646 H   0  0  0  0  0  0  0  0  0  0  0  0
    0.4642   -1.1347   -2.6500 H   0  0  0  0  0  0  0  0  0  0  0  0
    4.6471    0.4523   -0.9082 H   0  0  0  0  0  0  0  0  0  0  0  0
    3.8221    1.3543   -2.1567 H   0  0  0  0  0  0  0  0  0  0  0  0
    3.1670    1.3038   -0.5376 H   0  0  0  0  0  0  0  0  0  0  0  0
    4.5733   -2.0452   -2.6637 H   0  0  0  0  0  0  0  0  0  0  0  0
    3.0509   -2.6228   -3.2976 H   0  0  0  0  0  0  0  0  0  0  0  0
    3.7482   -1.1432   -3.9122 H   0  0  0  0  0  0  0  0  0  0  0  0
  1  2  1  0  0  0  0
  2  3  1  0  0  0  0
  2  4  1  0  0  0  0
  2  5  1  0  0  0  0
  2  6  1  0  0  0  0
  2 11  1  0  0  0  0
  2 12  1  0  0  0  0
  2 19  1  0  0  0  0
  2 20  1  0  0  0  0
  2 21  1  0  0  0  0
  2 22  1  0  0  0  0
  2 27  1  0  0  0  0
  4  5  1  0  0  0  0
  4 12  2  0  0  0  0
  5  6  2  0  0  0  0
  5 32  1  0  0  0  0
  6  7  1  0  0  0  0
  6 11  1  0  0  0  0
  7  8  2  0  0  0  0
  7 36  1  0  0  0  0
  8  9  1  0  0  0  0
  8 37  1  0  0  0  0
  9 10  2  0  0  0  0
  9 38  1  0  0  0  0
 10 11  1  0  0  0  0
 10 39  1  0  0  0  0
 11 12  1  0  0  0  0
 12 13  1  0  0  0  0
 13 14  1  0  0  0  0
 13 15  1  0  0  0  0
 13 16  1  0  0  0  0
 14 40  1  0  0  0  0
 14 41  1  0  0  0  0
 14 42  1  0  0  0  0
 15 43  1  0  0  0  0
 15 44  1  0  0  0  0
 15 45  1  0  0  0  0
 16 17  1  0  0  0  0
 16 18  1  0  0  0  0
 16 19  1  0  0  0  0
 17 46  1  0  0  0  0
 17 47  1  0  0  0  0
 17 48  1  0  0  0  0
 18 49  1  0  0  0  0
 18 50  1  0  0  0  0
 18 51  1  0  0  0  0
 19 20  1  0  0  0  0
 19 27  2  0  0  0  0
 20 21  1  0  0  0  0
 21 22  2  0  0  0  0
 21 28  1  0  0  0  0
 22 23  1  0  0  0  0
 22 27  1  0  0  0  0
 23 24  2  0  0  0  0
 23 52  1  0  0  0  0
 24 25  1  0  0  0  0
 24 53  1  0  0  0  0
 25 26  2  0  0  0  0
 25 54  1  0  0  0  0
 26 27  1  0  0  0  0
 26 55  1  0  0  0  0
 28 29  1  0  0  0  0
 28 30  1  0  0  0  0
 28 31  1  0  0  0  0
 29 56  1  0  0  0  0
 29 57  1  0  0  0  0
 29 58  1  0  0  0  0
 30 59  1  0  0  0  0
 30 60  1  0  0  0  0
 30 61  1  0  0  0  0
 31 62  1  0  0  0  0
 31 63  1  0  0  0  0
 31 64  1  0  0  0  0
 32 33  1  0  0  0  0
 32 34  1  0  0  0  0
 32 35  1  0  0  0  0
 33 65  1  0  0  0  0
 33 66  1  0  0  0  0
 33 67  1  0  0  0  0
 34 68  1  0  0  0  0
 34 69  1  0  0  0  0
 34 70  1  0  0  0  0
 35 71  1  0  0  0  0
 35 72  1  0  0  0  0
 35 73  1  0  0  0  0
M  END
$$$$
