
 OpenBabel08122501093D

 28 28  0  0  0  0  0  0  0  0999 V2000
    1.0819   -0.3324   -0.3379 C   0  0  0  0  0  0  0  0  0  0  0  0
    0.3597   -1.2210    0.6770 C   0  0  0  0  0  0  0  0  0  0  0  0
    0.9351   -1.2515    2.1001 C   0  0  0  0  0  0  0  0  0  0  0  0
    1.2236    0.0365    2.7592 C   0  0  0  0  0  0  0  0  0  0  0  0
    0.7481    1.2468    2.4209 C   0  0  0  0  0  0  0  0  0  0  0  0
    1.1424    2.5233    3.0504 C   0  0  0  0  0  0  0  0  0  0  0  0
    2.3487    2.6941    3.7502 C   0  0  0  0  0  0  0  0  0  0  0  0
    2.7012    3.9415    4.2744 C   0  0  0  0  0  0  0  0  0  0  0  0
    1.8571    5.0271    4.0881 C   0  0  0  0  0  0  0  0  0  0  0  0
    2.2006    6.2241    4.5804 F   0  0  0  0  0  0  0  0  0  0  0  0
    0.6667    4.8896    3.3876 C   0  0  0  0  0  0  0  0  0  0  0  0
    0.3118    3.6414    2.8682 C   0  0  0  0  0  0  0  0  0  0  0  0
    1.1873   -2.4309    2.7369 C   0  0  0  0  0  0  0  0  0  0  0  0
    0.9339   -3.6954    2.1245 C   0  0  0  0  0  0  0  0  0  0  0  0
    0.7282   -4.7194    1.6197 N   0  0  0  0  0  0  0  0  0  0  0  0
    1.6824   -2.4911    4.0752 C   0  0  0  0  0  0  0  0  0  0  0  0
    2.0839   -2.5271    5.1643 N   0  0  0  0  0  0  0  0  0  0  0  0
    0.6885    0.6884   -0.3276 H   0  0  0  0  0  0  0  0  0  0  0  0
    0.9125   -0.7108   -1.3520 H   0  0  0  0  0  0  0  0  0  0  0  0
    2.1610   -0.2937   -0.1641 H   0  0  0  0  0  0  0  0  0  0  0  0
   -0.6994   -0.9398    0.7240 H   0  0  0  0  0  0  0  0  0  0  0  0
    0.3744   -2.2254    0.2397 H   0  0  0  0  0  0  0  0  0  0  0  0
    1.8997   -0.0101    3.6125 H   0  0  0  0  0  0  0  0  0  0  0  0
    0.0180    1.3493    1.6238 H   0  0  0  0  0  0  0  0  0  0  0  0
    3.0445    1.8706    3.8875 H   0  0  0  0  0  0  0  0  0  0  0  0
    3.6328    4.0716    4.8163 H   0  0  0  0  0  0  0  0  0  0  0  0
    0.0255    5.7532    3.2438 H   0  0  0  0  0  0  0  0  0  0  0  0
   -0.6207    3.5544    2.3146 H   0  0  0  0  0  0  0  0  0  0  0  0
  1  2  1  0  0  0  0
  1 18  1  0  0  0  0
  1 19  1  0  0  0  0
  1 20  1  0  0  0  0
  2  3  1  0  0  0  0
  2 21  1  0  0  0  0
  2 22  1  0  0  0  0
  3  4  1  0  0  0  0
  3 13  2  0  0  0  0
  4  5  2  0  0  0  0
  4 23  1  0  0  0  0
  5  6  1  0  0  0  0
  5 24  1  0  0  0  0
  6  7  1  0  0  0  0
  6 12  2  0  0  0  0
  7  8  2  0  0  0  0
  7 25  1  0  0  0  0
  8  9  1  0  0  0  0
  8 26  1  0  0  0  0
  9 10  1  0  0  0  0
  9 11  2  0  0  0  0
 11 12  1  0  0  0  0
 11 27  1  0  0  0  0
 12 28  1  0  0  0  0
 13 14  1  0  0  0  0
 13 16  1  0  0  0  0
 14 15  3  0  0  0  0
 16 17  3  0  0  0  0
M  END
$$$$
