
 OpenBabel08122501093D

 35 38  0  0  0  0  0  0  0  0999 V2000
    1.1411   -0.4007    0.0003 F   0  0  0  0  0  0  0  0  0  0  0  0
    2.4844   -0.1911   -0.1013 C   0  0  0  0  0  0  0  0  0  0  0  0
    2.9738   -0.2822    1.1649 F   0  0  0  0  0  0  0  0  0  0  0  0
    2.9755   -1.2710   -0.7715 F   0  0  0  0  0  0  0  0  0  0  0  0
    2.8131    1.1238   -0.7611 C   0  0  0  0  0  0  0  0  0  0  0  0
    3.7449    1.2164   -1.8018 C   0  0  0  0  0  0  0  0  0  0  0  0
    3.9983    2.4463   -2.4135 C   0  0  0  0  0  0  0  0  0  0  0  0
    3.3284    3.5980   -1.9905 C   0  0  0  0  0  0  0  0  0  0  0  0
    2.4471    3.5317   -0.9119 C   0  0  0  0  0  0  0  0  0  0  0  0
    2.1881    2.2955   -0.3115 C   0  0  0  0  0  0  0  0  0  0  0  0
    1.8555    4.7042   -0.3797 N   0  0  0  0  0  0  0  0  0  0  0  0
    1.2071    5.8498   -1.5453 C   0  0  0  0  0  0  0  0  0  0  0  0
    0.3016    7.1420   -0.7925 C   0  0  0  0  0  0  0  0  0  0  0  0
    1.0269    8.7255   -1.0837 Cl  0  0  0  0  0  0  0  0  0  0  0  0
   -1.0272    7.3174   -0.2427 O   0  0  0  0  0  0  0  0  0  0  0  0
   -1.2113    6.4842    0.9550 C   0  0  0  0  0  0  0  0  0  0  0  0
   -3.0311    6.3543    1.5047 Br  0  0  0  0  0  0  0  0  0  0  0  0
   -0.2746    6.7091    2.1991 C   0  0  0  0  0  0  0  0  0  0  0  0
    1.1406    6.3389    1.7298 C   0  0  0  0  0  0  0  0  0  0  0  0
    0.7997    6.4706    0.3527 C   0  0  0  0  0  0  0  0  0  0  0  0
   -0.4945    5.3045    0.4545 C   0  0  0  0  0  0  0  0  0  0  0  0
   -1.5800    4.3108   -1.1505 I   0  0  0  0  0  0  0  0  0  0  0  0
    1.8620    4.9015    1.1931 C   0  0  0  0  0  0  0  0  0  0  0  0
    2.3223    4.0944    1.9890 O   0  0  0  0  0  0  0  0  0  0  0  0
    4.2812    0.3302   -2.1382 H   0  0  0  0  0  0  0  0  0  0  0  0
    4.7392    2.5109   -3.2075 H   0  0  0  0  0  0  0  0  0  0  0  0
    3.5790    4.5457   -2.4566 H   0  0  0  0  0  0  0  0  0  0  0  0
    1.4749    2.2267    0.5093 H   0  0  0  0  0  0  0  0  0  0  0  0
    2.1088    6.2835   -2.0000 H   0  0  0  0  0  0  0  0  0  0  0  0
    0.6714    5.3037   -2.3208 H   0  0  0  0  0  0  0  0  0  0  0  0
   -0.5494    6.0817    3.0562 H   0  0  0  0  0  0  0  0  0  0  0  0
   -0.3098    7.7613    2.5046 H   0  0  0  0  0  0  0  0  0  0  0  0
    1.9137    7.0116    2.1142 H   0  0  0  0  0  0  0  0  0  0  0  0
    1.8819    6.6386    0.1136 H   0  0  0  0  0  0  0  0  0  0  0  0
   -0.3946    4.5313    1.2322 H   0  0  0  0  0  0  0  0  0  0  0  0
  1  2  1  0  0  0  0
  2  3  1  0  0  0  0
  2  4  1  0  0  0  0
  2  5  1  0  0  0  0
  5  6  1  0  0  0  0
  5 10  2  0  0  0  0
  6  7  2  0  0  0  0
  6 25  1  0  0  0  0
  7  8  1  0  0  0  0
  7 26  1  0  0  0  0
  8  9  2  0  0  0  0
  8 27  1  0  0  0  0
  9 10  1  0  0  0  0
  9 11  1  0  0  0  0
 10 28  1  0  0  0  0
 11 12  1  0  0  0  0
 11 23  1  0  0  0  0
 12 13  1  0  0  0  0
 12 29  1  0  0  0  0
 12 30  1  0  0  0  0
 13 14  1  0  0  0  0
 13 15  1  0  0  0  0
 13 20  1  0  0  0  0
 15 16  1  0  0  0  0
 16 17  1  0  0  0  0
 16 18  1  0  0  0  0
 16 21  1  0  0  0  0
 18 19  1  0  0  0  0
 18 31  1  0  0  0  0
 18 32  1  0  0  0  0
 19 20  1  0  0  0  0
 19 23  1  0  0  0  0
 19 33  1  0  0  0  0
 20 21  1  0  0  0  0
 20 34  1  0  0  0  0
 21 22  1  0  0  0  0
 21 35  1  0  0  0  0
 23 24  2  0  0  0  0
M  END
$$$$
