
 OpenBabel09252518253D

114121  0  0  0  0  0  0  0  0999 V2000
    1.0444    0.0733    0.0515 C   0  0  0  0  0  0  0  0  0  0  0  0
    0.5711    1.0146   -0.9005 O   0  0  0  0  0  0  0  0  0  0  0  0
    1.5601    1.4153   -1.7180 C   0  0  0  0  0  0  0  0  0  0  0  0
    1.4309    2.8438   -1.9911 C   0  0  0  0  0  0  0  0  0  0  0  0
    0.7702    3.4240   -0.7180 O   0  0  0  0  0  0  0  0  0  0  0  0
   -0.1161    4.4873   -1.0345 C   0  0  0  0  0  0  0  0  0  0  0  0
    0.0095    2.2050   -0.1740 Eu  0  0  0  0  0  0  0  0  0  0  0  0
    1.4817    3.7864   -1.7764 N   0  0  0  0  0  0  0  0  0  0  0  0
    2.7663    3.9472   -1.5419 C   0  0  0  0  0  0  0  0  0  0  0  0
    4.3479    4.1451   -1.2531 S   0  0  0  0  0  0  0  0  0  0  0  0
    1.0689    3.8562   -2.0144 N   0  0  0  0  0  0  0  0  0  0  0  0
    1.8381    3.3059   -3.1397 C   0  0  0  0  0  0  0  0  0  0  0  0
    1.3004    2.4660   -3.9981 C   0  0  0  0  0  0  0  0  0  0  0  0
    2.1107    1.9285   -4.9923 C   0  0  0  0  0  0  0  0  0  0  0  0
    3.2667    2.6661   -5.3320 C   0  0  0  0  0  0  0  0  0  0  0  0
    3.9013    3.3357   -4.2872 C   0  0  0  0  0  0  0  0  0  0  0  0
    3.1941    3.6417   -3.2201 C   0  0  0  0  0  0  0  0  0  0  0  0
    3.8580    4.3682   -2.0618 C   0  0  0  0  0  0  0  0  0  0  0  0
    5.0005    3.5234   -1.5219 C   0  0  0  0  0  0  0  0  0  0  0  0
    4.3998    5.7036   -2.5451 C   0  0  0  0  0  0  0  0  0  0  0  0
   -0.1701    2.0926   -3.9054 C   0  0  0  0  0  0  0  0  0  0  0  0
   -0.8756    2.4888   -5.1922 C   0  0  0  0  0  0  0  0  0  0  0  0
   -0.2998    0.5925   -3.6976 C   0  0  0  0  0  0  0  0  0  0  0  0
    0.8786    5.3090   -1.8949 C   0  0  0  0  0  0  0  0  0  0  0  0
    0.2727    6.1144   -2.7614 C   0  0  0  0  0  0  0  0  0  0  0  0
   -0.3425    4.2861    1.4937 N   0  0  0  0  0  0  0  0  0  0  0  0
   -1.1377    4.1200    2.7188 C   0  0  0  0  0  0  0  0  0  0  0  0
   -0.7626    3.2388    3.6210 C   0  0  0  0  0  0  0  0  0  0  0  0
   -1.5202    3.1174    4.7808 C   0  0  0  0  0  0  0  0  0  0  0  0
   -2.2985    4.2383    5.1468 C   0  0  0  0  0  0  0  0  0  0  0  0
   -2.8508    4.9748    4.1004 C   0  0  0  0  0  0  0  0  0  0  0  0
   -2.2766    4.9081    2.9179 C   0  0  0  0  0  0  0  0  0  0  0  0
   -2.8574    5.6964    1.7553 C   0  0  0  0  0  0  0  0  0  0  0  0
   -4.2867    5.2457    1.5013 C   0  0  0  0  0  0  0  0  0  0  0  0
   -2.8457    7.1786    2.0919 C   0  0  0  0  0  0  0  0  0  0  0  0
    0.4686    2.3749    3.4010 C   0  0  0  0  0  0  0  0  0  0  0  0
    1.4739    2.6334    4.5114 C   0  0  0  0  0  0  0  0  0  0  0  0
    0.0674    0.9089    3.4120 C   0  0  0  0  0  0  0  0  0  0  0  0
    0.2847    7.4946   -2.2619 C   0  0  0  0  0  0  0  0  0  0  0  0
   -0.2023    8.8061   -2.7300 C   0  0  0  0  0  0  0  0  0  0  0  0
    0.0005    9.8752   -1.9795 C   0  0  0  0  0  0  0  0  0  0  0  0
    0.7023    9.8063   -0.6788 C   0  0  0  0  0  0  0  0  0  0  0  0
    1.1351    8.6402   -0.2631 C   0  0  0  0  0  0  0  0  0  0  0  0
    1.8508    8.3779    0.9973 C   0  0  0  0  0  0  0  0  0  0  0  0
    2.2180    7.1373    1.2616 C   0  0  0  0  0  0  0  0  0  0  0  0
    1.9585    5.9908    0.3754 C   0  0  0  0  0  0  0  0  0  0  0  0
    1.3226    6.1338   -0.7604 C   0  0  0  0  0  0  0  0  0  0  0  0
    0.8920    7.4853   -1.1191 C   0  0  0  0  0  0  0  0  0  0  0  0
    0.1698    2.0796    1.3155 O   0  0  0  0  0  0  0  0  0  0  0  0
    1.0252    3.1097    1.7883 C   0  0  0  0  0  0  0  0  0  0  0  0
   -1.0331    2.1898    1.9051 C   0  0  0  0  0  0  0  0  0  0  0  0
   -2.0885    1.9041    0.9381 C   0  0  0  0  0  0  0  0  0  0  0  0
   -1.5028    2.3508   -0.4227 O   0  0  0  0  0  0  0  0  0  0  0  0
   -1.9381    1.5046   -1.4766 C   0  0  0  0  0  0  0  0  0  0  0  0
    0.6877   -0.9026   -0.2041 H   0  0  0  0  0  0  0  0  0  0  0  0
    0.6877    0.3399    1.0245 H   0  0  0  0  0  0  0  0  0  0  0  0
    2.1144    0.0733    0.0515 H   0  0  0  0  0  0  0  0  0  0  0  0
    1.4974    0.8736   -2.6386 H   0  0  0  0  0  0  0  0  0  0  0  0
    2.5043    1.2273   -1.2512 H   0  0  0  0  0  0  0  0  0  0  0  0
    2.3729    3.3035   -2.2060 H   0  0  0  0  0  0  0  0  0  0  0  0
    0.8120    3.0105   -2.8479 H   0  0  0  0  0  0  0  0  0  0  0  0
   -0.8128    4.1615   -1.7784 H   0  0  0  0  0  0  0  0  0  0  0  0
   -0.6471    4.7831   -0.1539 H   0  0  0  0  0  0  0  0  0  0  0  0
    0.4436    5.3185   -1.4096 H   0  0  0  0  0  0  0  0  0  0  0  0
    1.8710    1.0041   -5.4749 H   0  0  0  0  0  0  0  0  0  0  0  0
    3.6348    2.7083   -6.3358 H   0  0  0  0  0  0  0  0  0  0  0  0
    4.9375    3.5946   -4.3511 H   0  0  0  0  0  0  0  0  0  0  0  0
    3.1398    4.5343   -1.2863 H   0  0  0  0  0  0  0  0  0  0  0  0
    5.7187    3.3573   -2.2975 H   0  0  0  0  0  0  0  0  0  0  0  0
    5.4679    4.0349   -0.7065 H   0  0  0  0  0  0  0  0  0  0  0  0
    4.6191    2.5834   -1.1817 H   0  0  0  0  0  0  0  0  0  0  0  0
    3.5956    6.2983   -2.9252 H   0  0  0  0  0  0  0  0  0  0  0  0
    4.8672    6.2151   -1.7297 H   0  0  0  0  0  0  0  0  0  0  0  0
    5.1180    5.5375   -3.3207 H   0  0  0  0  0  0  0  0  0  0  0  0
   -0.6174    2.6069   -3.0805 H   0  0  0  0  0  0  0  0  0  0  0  0
   -0.4283    1.9745   -6.0170 H   0  0  0  0  0  0  0  0  0  0  0  0
   -1.9107    2.2259   -5.1269 H   0  0  0  0  0  0  0  0  0  0  0  0
   -0.7843    3.5448   -5.3384 H   0  0  0  0  0  0  0  0  0  0  0  0
    0.1968    0.3136   -2.7918 H   0  0  0  0  0  0  0  0  0  0  0  0
   -1.3349    0.3296   -3.6323 H   0  0  0  0  0  0  0  0  0  0  0  0
    0.1475    0.0782   -4.5224 H   0  0  0  0  0  0  0  0  0  0  0  0
   -1.5141    2.2214    5.3657 H   0  0  0  0  0  0  0  0  0  0  0  0
   -2.4551    4.5068    6.1706 H   0  0  0  0  0  0  0  0  0  0  0  0
   -3.7200    5.5795    4.2546 H   0  0  0  0  0  0  0  0  0  0  0  0
   -2.2683    5.5251    0.8786 H   0  0  0  0  0  0  0  0  0  0  0  0
   -4.8758    5.4170    2.3779 H   0  0  0  0  0  0  0  0  0  0  0  0
   -4.6955    5.8006    0.6828 H   0  0  0  0  0  0  0  0  0  0  0  0
   -4.2949    4.2024    1.2643 H   0  0  0  0  0  0  0  0  0  0  0  0
   -1.8396    7.4958    2.2707 H   0  0  0  0  0  0  0  0  0  0  0  0
   -3.2546    7.7335    1.2735 H   0  0  0  0  0  0  0  0  0  0  0  0
   -3.4348    7.3499    2.9686 H   0  0  0  0  0  0  0  0  0  0  0  0
    0.9100    2.6169    2.4568 H   0  0  0  0  0  0  0  0  0  0  0  0
    1.0325    2.3915    5.4556 H   0  0  0  0  0  0  0  0  0  0  0  0
    2.3405    2.0253    4.3566 H   0  0  0  0  0  0  0  0  0  0  0  0
    1.7563    3.6654    4.5037 H   0  0  0  0  0  0  0  0  0  0  0  0
   -0.6403    0.7269    2.6303 H   0  0  0  0  0  0  0  0  0  0  0  0
    0.9340    0.3008    3.2571 H   0  0  0  0  0  0  0  0  0  0  0  0
   -0.3740    0.6670    4.3562 H   0  0  0  0  0  0  0  0  0  0  0  0
   -0.7138    8.8909   -3.6660 H   0  0  0  0  0  0  0  0  0  0  0  0
   -0.3552   10.8235   -2.3247 H   0  0  0  0  0  0  0  0  0  0  0  0
    0.8532   10.6875   -0.0909 H   0  0  0  0  0  0  0  0  0  0  0  0
    2.0675    9.1719    1.6811 H   0  0  0  0  0  0  0  0  0  0  0  0
    2.7376    6.9536    2.1787 H   0  0  0  0  0  0  0  0  0  0  0  0
    2.2973    5.0183    0.6660 H   0  0  0  0  0  0  0  0  0  0  0  0
    0.5992    4.0628    1.5538 H   0  0  0  0  0  0  0  0  0  0  0  0
    1.1384    3.0207    2.8485 H   0  0  0  0  0  0  0  0  0  0  0  0
    1.9827    3.0217    1.3188 H   0  0  0  0  0  0  0  0  0  0  0  0
   -1.1543    3.1867    2.2746 H   0  0  0  0  0  0  0  0  0  0  0  0
   -1.0962    1.4937    2.7153 H   0  0  0  0  0  0  0  0  0  0  0  0
   -3.0015    2.4103    1.1727 H   0  0  0  0  0  0  0  0  0  0  0  0
   -2.3169    0.8588    0.9261 H   0  0  0  0  0  0  0  0  0  0  0  0
   -1.6203    0.5014   -1.2829 H   0  0  0  0  0  0  0  0  0  0  0  0
   -3.0058    1.5345   -1.5401 H   0  0  0  0  0  0  0  0  0  0  0  0
   -1.5163    1.8403   -2.4009 H   0  0  0  0  0  0  0  0  0  0  0  0
  1  2  1  0  0  0  0
  1 55  1  0  0  0  0
  1 56  1  0  0  0  0
  1 57  1  0  0  0  0
  2  3  1  0  0  0  0
  2  7  1  0  0  0  0
  3  4  1  0  0  0  0
  3 58  1  0  0  0  0
  3 59  1  0  0  0  0
  4  5  1  0  0  0  0
  4 60  1  0  0  0  0
  4 61  1  0  0  0  0
  5  6  1  0  0  0  0
  5  7  1  0  0  0  0
  6 62  1  0  0  0  0
  6 63  1  0  0  0  0
  6 64  1  0  0  0  0
  7  8  1  0  0  0  0
  7 11  1  0  0  0  0
  7 26  1  0  0  0  0
  7 49  1  0  0  0  0
  7 53  1  0  0  0  0
  8  9  2  0  0  0  0
  9 10  2  0  0  0  0
 11 12  1  0  0  0  0
 11 24  1  0  0  0  0
 12 13  1  0  0  0  0
 12 17  2  0  0  0  0
 13 14  2  0  0  0  0
 13 21  1  0  0  0  0
 14 15  1  0  0  0  0
 14 65  1  0  0  0  0
 15 16  2  0  0  0  0
 15 66  1  0  0  0  0
 16 17  1  0  0  0  0
 16 67  1  0  0  0  0
 17 18  1  0  0  0  0
 18 19  1  0  0  0  0
 18 20  1  0  0  0  0
 18 68  1  0  0  0  0
 19 69  1  0  0  0  0
 19 70  1  0  0  0  0
 19 71  1  0  0  0  0
 20 72  1  0  0  0  0
 20 73  1  0  0  0  0
 20 74  1  0  0  0  0
 21 22  1  0  0  0  0
 21 23  1  0  0  0  0
 21 75  1  0  0  0  0
 22 76  1  0  0  0  0
 22 77  1  0  0  0  0
 22 78  1  0  0  0  0
 23 79  1  0  0  0  0
 23 80  1  0  0  0  0
 23 81  1  0  0  0  0
 24 25  2  0  0  0  0
 24 47  1  0  0  0  0
 25 26  1  0  0  0  0
 25 39  1  0  0  0  0
 26 27  1  0  0  0  0
 27 28  1  0  0  0  0
 27 32  2  0  0  0  0
 28 29  2  0  0  0  0
 28 36  1  0  0  0  0
 29 30  1  0  0  0  0
 29 82  1  0  0  0  0
 30 31  2  0  0  0  0
 30 83  1  0  0  0  0
 31 32  1  0  0  0  0
 31 84  1  0  0  0  0
 32 33  1  0  0  0  0
 33 34  1  0  0  0  0
 33 35  1  0  0  0  0
 33 85  1  0  0  0  0
 34 86  1  0  0  0  0
 34 87  1  0  0  0  0
 34 88  1  0  0  0  0
 35 89  1  0  0  0  0
 35 90  1  0  0  0  0
 35 91  1  0  0  0  0
 36 37  1  0  0  0  0
 36 38  1  0  0  0  0
 36 92  1  0  0  0  0
 37 93  1  0  0  0  0
 37 94  1  0  0  0  0
 37 95  1  0  0  0  0
 38 96  1  0  0  0  0
 38 97  1  0  0  0  0
 38 98  1  0  0  0  0
 39 40  1  0  0  0  0
 39 48  2  0  0  0  0
 40 41  2  0  0  0  0
 40 99  1  0  0  0  0
 41 42  1  0  0  0  0
 41100  1  0  0  0  0
 42 43  2  0  0  0  0
 42101  1  0  0  0  0
 43 44  1  0  0  0  0
 43 48  1  0  0  0  0
 44 45  2  0  0  0  0
 44102  1  0  0  0  0
 45 46  1  0  0  0  0
 45103  1  0  0  0  0
 46 47  2  0  0  0  0
 46104  1  0  0  0  0
 47 48  1  0  0  0  0
 49 50  1  0  0  0  0
 49 51  1  0  0  0  0
 50105  1  0  0  0  0
 50106  1  0  0  0  0
 50107  1  0  0  0  0
 51 52  1  0  0  0  0
 51108  1  0  0  0  0
 51109  1  0  0  0  0
 52 53  1  0  0  0  0
 52110  1  0  0  0  0
 52111  1  0  0  0  0
 53 54  1  0  0  0  0
 54112  1  0  0  0  0
 54113  1  0  0  0  0
 54114  1  0  0  0  0
M  END
$$$$
