
  --CCDC--092525    3D                              

 45 50  0  0  0  0  0  0  0  0999 V2000
    6.8080    1.4829   -1.4912 H      0
    6.6187    2.1220   -0.6324 C      0
    6.5557    1.4970    0.2551 H      0
    7.4700    2.7901   -0.5165 H      0
    5.0518    3.1104   -0.8682 Si     0
    3.6530    2.5707    0.1525 C      0
    3.0615    1.3006    0.0574 C      0
    2.1854   -0.5803   -0.0834 Cr     0
    4.1317   -0.4386   -0.7696 C      0
    5.2063   -0.3698   -1.1390 O      0
    2.4519    0.4568   -1.8542 C      0
    2.5758    1.0064   -2.8435 O      0
    0.3255   -0.3950    0.1611 C      0
    0.7998    0.4850   -0.4333 H      0
    1.0963   -0.2422    1.4931 C      0
    1.7853    0.6629    1.8210 H      0
    2.2342   -1.1929    1.7414 C      0
    3.3965   -0.9573    1.8416 H      0
    2.5162   -2.2917    0.7515 C      0
    3.5056   -2.4604    0.1091 H      0
    1.6748   -2.4702   -0.4894 C      0
    2.0143   -2.3675   -1.6330 H      0
    0.6538   -1.5217   -0.7509 C      0
    1.2764   -0.9287   -1.5389 H      0
    3.0048    3.7550    1.3630 Si     0
    2.4018    5.3554    0.6080 C      0
    1.6885    5.1630   -0.1881 H      0
    3.2342    5.9275    0.2029 H      0
    1.8987    5.9678    1.3526 H      0
    4.2406    4.3006    2.6594 C      0
    4.0961    5.3503    2.9067 H      0
    5.2609    4.1783    2.3029 H      0
    4.1303    3.7358    3.5811 H      0
    1.5515    3.0697    2.3187 C      0
    0.9291    2.4496    1.6774 H      0
    0.9342    3.8721    2.7179 H      0
    1.8928    2.4589    3.1520 H      0
    5.5734    4.8690   -0.5130 C      0
    6.5796    5.0521   -0.8828 H      0
    5.5638    5.0738    0.5548 H      0
    4.9079    5.5755   -1.0028 H      0
    4.7261    3.1267   -2.7065 C      0
    4.7451    2.1181   -3.1103 H      0
    5.4829    3.7094   -3.2255 H      0
    3.7538    3.5644   -2.9223 H      0
  1  2  1
  2  3  1
  2  4  1
  2  5  1
  5  6  1
  6  7  4
  7  8  4
  8  9  1
  9 10  3
  8 11  1
 11 12  3
  8 13  1
 13 14  1
 13 15  4
  8 15  1
 15 16  1
 15 17  4
  8 17  1
 17 18  1
 17 19  4
  8 19  1
 19 20  1
 19 21  4
  8 21  1
 21 22  1
 21 23  4
 13 23  4
  8 23  1
 23 24  1
  6 25  1
 25 26  1
 26 27  1
 26 28  1
 26 29  1
 25 30  1
 30 31  1
 30 32  1
 30 33  1
 25 34  1
 34 35  1
 34 36  1
 34 37  1
  5 38  1
 38 39  1
 38 40  1
 38 41  1
  5 42  1
 42 43  1
 42 44  1
 42 45  1
M  END
$$$$
