
  --CCDC--092525    3D                              

 39 44  0  0  0  0  0  0  0  0999 V2000
   -0.0174    0.0106   -0.0420 C      0
    1.7573   -0.0125   -0.6249 Si     0
    2.4847   -1.6159    0.0013 C      0
    1.6183   -0.1898   -2.4777 C      0
    2.6943    1.4422   -0.0948 C      0
    3.7539    1.9339   -0.8696 C      0
    5.3137    2.6972   -2.0128 Cr     0
    4.9830    0.6657   -2.2376 C      0
    4.8010   -0.4522   -2.3612 O      0
    3.6141    2.3153   -3.1350 C      0
    2.7223    2.1269   -3.8181 O      0
    6.2706    3.0844   -0.4508 C      0
    5.3009    4.2134   -0.9133 C      0
    5.1242    4.5134   -2.4302 C      0
    5.9166    3.6834   -3.4874 C      0
    6.8830    2.5540   -3.0259 C      0
    7.0626    2.2575   -1.5063 C      0
    2.3158    2.2055    1.5084 Si     0
    0.9004    1.3787    2.4110 C      0
    1.8176    4.0026    1.3629 C      0
    3.7588    2.1804    2.7000 C      0
   -0.3700    1.0328    0.0740 H      0
   -0.1218   -0.4946    0.9150 H      0
   -0.6650   -0.4870   -0.7605 H      0
    3.5054   -1.7404   -0.3529 H      0
    1.8987   -2.4633   -0.3477 H      0
    2.4985   -1.6391    1.0892 H      0
    1.2022   -1.1556   -2.7529 H      0
    2.5861   -0.0904   -2.9583 H      0
    0.9693    0.5854   -2.8736 H      0
   -0.0544    1.6640    1.9761 H      0
    0.8859    1.6628    3.4613 H      0
    0.9852    0.2966    2.3629 H      0
    0.9312    4.1086    0.7414 H      0
    2.6171    4.5909    0.9179 H      0
    1.5946    4.4238    2.3414 H      0
    4.0746    1.1598    2.9039 H      0
    3.4921    2.6440    3.6475 H      0
    4.6091    2.7207    2.2902 H      0
  1  2  1
  2  3  1
  2  4  1
  2  5  1
  5  6  4
  6  7  4
  7  8  1
  8  9  3
  7 10  1
 10 11  3
  7 12  1
 12 13  4
  7 13  1
 13 14  4
  7 14  1
 14 15  4
  7 15  1
 15 16  4
  7 16  1
 16 17  4
  7 17  1
 12 17  4
  5 18  1
 18 19  1
 18 20  1
 18 21  1
  1 22  1
  1 23  1
  1 24  1
  3 25  1
  3 26  1
  3 27  1
  4 28  1
  4 29  1
  4 30  1
 19 31  1
 19 32  1
 19 33  1
 20 34  1
 20 35  1
 20 36  1
 21 37  1
 21 38  1
 21 39  1
M  END
$$$$
