
  --CCDC--092525    3D                              

 55 54  0  0  0  0  0  0  0  0999 V2000
    0.3528   -0.8635    0.7393 H      0
    0.7939    0.1238    0.6356 C      0
    1.1990    0.1936   -0.3718 H      0
    1.6246    0.2062    1.3330 H      0
   -0.2208    1.2354    0.8699 C      0
   -1.0688    1.0769    0.1919 H      0
    0.2819    2.1589    0.5601 H      0
   -0.8410    1.4239    2.5829 P      0
    0.7896    1.4476    3.4320 C      0
    1.4981    1.7939    2.6694 H      0
    0.8967    2.1797    4.2371 H      0
    1.3120    0.0820    3.8739 C      0
    0.9842   -0.7007    3.1939 H      0
    0.9641   -0.1786    4.8706 H      0
    2.3999    0.0779    3.8895 H      0
   -1.6472   -0.2357    2.5168 C      0
   -2.3117   -0.2889    1.6445 H      0
   -0.8446   -0.9420    2.2847 H      0
   -2.3627   -0.8964    3.6936 C      0
   -2.7968   -1.8435    3.3801 H      0
   -3.1697   -0.2741    4.0709 H      0
   -1.6745   -1.1122    4.5078 H      0
   -1.9381    2.4642    3.2041 O      0
   -1.9919    3.4854    1.3272 I      0
   -1.2805    1.6054    5.0461 I      0
   -3.0200    1.8364    2.5666 C      0
   -3.9454    1.3840    2.0700 O      0
   -2.9922    2.6152    4.1205 C      0
   -3.3716    1.6332    4.3889 H      0
   -3.8391    3.1538    3.7010 H      0
   -2.6746    3.0679    5.0533 H      0
   -1.2899    3.9447    3.4673 P      0
   -2.5997    5.2227    3.6923 C      0
   -2.1402    6.1728    3.3931 H      0
   -3.4205    5.0487    2.9866 H      0
   -3.2413    5.4997    5.0529 C      0
   -3.9408    6.3288    4.9696 H      0
   -2.5058    5.7715    5.8051 H      0
   -3.7989    4.6424    5.4213 H      0
    0.3828    4.1905    2.7505 C      0
    0.6220    3.4729    1.9607 H      0
    1.1296    4.0454    3.5401 H      0
    0.5812    5.5667    2.1226 C      0
    0.0967    6.3537    2.6935 H      0
    0.1689    5.5907    1.1160 H      0
    1.6407    5.8039    2.0517 H      0
   -0.5287    4.3323    5.0960 C      0
   -1.2615    4.1713    5.8962 H      0
    0.3367    3.6938    5.3018 H      0
   -0.0199    5.7581    5.2572 C      0
    0.8734    5.9258    4.6620 H      0
    0.2441    5.9469    6.2957 H      0
   -0.7742    6.4859    4.9667 H      0
   -1.1395    2.4706    1.7030 H      0
   -1.3737    4.6291    2.2495 H      0
  1  2  1
  2  3  1
  2  4  1
  2  5  1
  5  6  1
  5  7  1
  5  8  1
  8  9  1
  9 10  1
  9 11  1
  9 12  1
 12 13  1
 12 14  1
 12 15  1
  8 16  1
 16 17  1
 16 18  1
 16 19  1
 19 20  1
 19 21  1
 19 22  1
  8 23  1
 23 24  1
 23 25  1
 23 26  1
 26 27  3
 23 28  1
 28 29  1
 28 30  1
 28 31  1
 23 32  1
 32 33  1
 33 34  1
 33 35  1
 33 36  1
 36 37  1
 36 38  1
 36 39  1
 32 40  1
 40 41  1
 40 42  1
 40 43  1
 43 44  1
 43 45  1
 43 46  1
 32 47  1
 47 48  1
 47 49  1
 47 50  1
 50 51  1
 50 52  1
 50 53  1
  8 54  1
 32 55  1
M  END
$$$$
