
 OpenBabel09252519273D

 35 38  0  0  0  0  0  0  0  0999 V2000
    0.8389   -0.2906    0.1293 F   0  0  0  0  0  0  0  0  0  0  0  0
    2.2013   -0.2757    0.1109 C   0  0  0  0  0  0  0  0  0  0  0  0
    2.5702    0.7963    0.8653 F   0  0  0  0  0  0  0  0  0  0  0  0
    2.5946   -1.3768    0.8098 F   0  0  0  0  0  0  0  0  0  0  0  0
    2.7463   -0.2427   -1.2946 C   0  0  0  0  0  0  0  0  0  0  0  0
    2.8781   -1.4200   -2.0423 C   0  0  0  0  0  0  0  0  0  0  0  0
    3.3195   -1.3695   -3.3653 C   0  0  0  0  0  0  0  0  0  0  0  0
    3.6269   -0.1427   -3.9598 C   0  0  0  0  0  0  0  0  0  0  0  0
    3.5454    1.0342   -3.2150 C   0  0  0  0  0  0  0  0  0  0  0  0
    3.0942    0.9777   -1.8918 C   0  0  0  0  0  0  0  0  0  0  0  0
    3.9659    2.2734   -3.7630 N   0  0  0  0  0  0  0  0  0  0  0  0
    3.4953    2.5913   -5.4283 C   0  0  0  0  0  0  0  0  0  0  0  0
    3.9361    4.1959   -5.9658 C   0  0  0  0  0  0  0  0  0  0  0  0
    5.0849    4.1572   -7.3065 Cl  0  0  0  0  0  0  0  0  0  0  0  0
    3.4172    5.5405   -5.8182 O   0  0  0  0  0  0  0  0  0  0  0  0
    3.4905    5.9787   -4.4164 C   0  0  0  0  0  0  0  0  0  0  0  0
    2.4775    7.5554   -4.0719 Br  0  0  0  0  0  0  0  0  0  0  0  0
    4.8930    6.0608   -3.7085 C   0  0  0  0  0  0  0  0  0  0  0  0
    5.4187    4.6194   -3.6564 C   0  0  0  0  0  0  0  0  0  0  0  0
    4.5315    4.1756   -4.6794 C   0  0  0  0  0  0  0  0  0  0  0  0
    3.1078    4.6940   -3.8163 C   0  0  0  0  0  0  0  0  0  0  0  0
    1.0172    4.2114   -4.1956 I   0  0  0  0  0  0  0  0  0  0  0  0
    4.8958    3.2069   -2.8820 C   0  0  0  0  0  0  0  0  0  0  0  0
    5.2242    2.9666   -1.7270 O   0  0  0  0  0  0  0  0  0  0  0  0
    2.6421   -2.3832   -1.5918 H   0  0  0  0  0  0  0  0  0  0  0  0
    3.4439   -2.2914   -3.9290 H   0  0  0  0  0  0  0  0  0  0  0  0
    4.0093   -0.1436   -4.9754 H   0  0  0  0  0  0  0  0  0  0  0  0
    2.9917    1.8947   -1.3126 H   0  0  0  0  0  0  0  0  0  0  0  0
    4.0894    1.8673   -6.0027 H   0  0  0  0  0  0  0  0  0  0  0  0
    2.4442    2.3340   -5.5531 H   0  0  0  0  0  0  0  0  0  0  0  0
    4.8307    6.4623   -2.6892 H   0  0  0  0  0  0  0  0  0  0  0  0
    5.5703    6.6910   -4.2965 H   0  0  0  0  0  0  0  0  0  0  0  0
    6.4904    4.5427   -3.8656 H   0  0  0  0  0  0  0  0  0  0  0  0
    5.2282    3.3249   -4.8973 H   0  0  0  0  0  0  0  0  0  0  0  0
    3.1845    4.7193   -2.7183 H   0  0  0  0  0  0  0  0  0  0  0  0
  1  2  1  0  0  0  0
  2  3  1  0  0  0  0
  2  4  1  0  0  0  0
  2  5  1  0  0  0  0
  5  6  1  0  0  0  0
  5 10  2  0  0  0  0
  6  7  2  0  0  0  0
  6 25  1  0  0  0  0
  7  8  1  0  0  0  0
  7 26  1  0  0  0  0
  8  9  2  0  0  0  0
  8 27  1  0  0  0  0
  9 10  1  0  0  0  0
  9 11  1  0  0  0  0
 10 28  1  0  0  0  0
 11 12  1  0  0  0  0
 11 23  1  0  0  0  0
 12 13  1  0  0  0  0
 12 29  1  0  0  0  0
 12 30  1  0  0  0  0
 13 14  1  0  0  0  0
 13 15  1  0  0  0  0
 13 20  1  0  0  0  0
 15 16  1  0  0  0  0
 16 17  1  0  0  0  0
 16 18  1  0  0  0  0
 16 21  1  0  0  0  0
 18 19  1  0  0  0  0
 18 31  1  0  0  0  0
 18 32  1  0  0  0  0
 19 20  1  0  0  0  0
 19 23  1  0  0  0  0
 19 33  1  0  0  0  0
 20 21  1  0  0  0  0
 20 34  1  0  0  0  0
 21 22  1  0  0  0  0
 21 35  1  0  0  0  0
 23 24  2  0  0  0  0
M  END
$$$$
