
     RDKit          3D

 26 26  0  0  0  0  0  0  0  0999 V2000
   -3.3322    0.7963   -0.9713 C   0  0  0  0  0  0  0  0  0  0  0  0
   -2.8699   -0.0188    0.2311 C   0  0  0  0  0  0  0  0  0  0  0  0
   -3.4964    0.5106    1.5152 C   0  0  0  0  0  0  0  0  0  0  0  0
   -1.4419    0.1028    0.3751 O   0  0  0  0  0  0  0  0  0  0  0  0
   -0.6927   -0.7405   -0.3762 C   0  0  0  0  0  0  0  0  0  0  0  0
   -1.1142   -1.5826   -1.1521 O   0  0  0  0  0  0  0  0  0  0  0  0
    0.7580   -0.5059   -0.1331 C   0  0  0  0  0  0  0  0  0  0  0  0
    1.2239    0.4679    0.7638 C   0  0  0  0  0  0  0  0  0  0  0  0
    2.5980    0.6509    0.9581 C   0  0  0  0  0  0  0  0  0  0  0  0
    3.5102   -0.1445    0.2512 C   0  0  0  0  0  0  0  0  0  0  0  0
    3.0568   -1.1195   -0.6466 C   0  0  0  0  0  0  0  0  0  0  0  0
    1.6820   -1.2961   -0.8350 C   0  0  0  0  0  0  0  0  0  0  0  0
    4.9527    0.0461    0.4535 N   0  0  0  0  0  0  0  0  0  0  0  0
    5.3105    0.9192    1.2566 O   0  0  0  0  0  0  0  0  0  0  0  0
    5.7253   -0.6773   -0.1905 O   0  0  0  0  0  0  0  0  0  0  0  0
   -4.4209    0.7635   -1.0770 H   0  0  0  0  0  0  0  0  0  0  0  0
   -2.8853    0.4163   -1.8957 H   0  0  0  0  0  0  0  0  0  0  0  0
   -3.0190    1.8422   -0.8789 H   0  0  0  0  0  0  0  0  0  0  0  0
   -3.1556   -1.0712    0.1131 H   0  0  0  0  0  0  0  0  0  0  0  0
   -3.1428   -0.0663    2.3767 H   0  0  0  0  0  0  0  0  0  0  0  0
   -3.2069    1.5520    1.6946 H   0  0  0  0  0  0  0  0  0  0  0  0
   -4.5884    0.4503    1.4798 H   0  0  0  0  0  0  0  0  0  0  0  0
    0.5281    1.0932    1.3199 H   0  0  0  0  0  0  0  0  0  0  0  0
    2.9363    1.4123    1.6588 H   0  0  0  0  0  0  0  0  0  0  0  0
    3.7520   -1.7454   -1.2033 H   0  0  0  0  0  0  0  0  0  0  0  0
    1.3324   -2.0555   -1.5342 H   0  0  0  0  0  0  0  0  0  0  0  0
  1  2  1  0
  2  3  1  0
  2  4  1  0
  4  5  1  0
  5  6  2  0
  5  7  1  0
  7  8  2  0
  8  9  1  0
  9 10  2  0
 10 11  1  0
 11 12  2  0
 10 13  1  0
 13 14  1  0
 13 15  2  0
 12  7  1  0
  1 16  1  0
  1 17  1  0
  1 18  1  0
  2 19  1  0
  3 20  1  0
  3 21  1  0
  3 22  1  0
  8 23  1  0
  9 24  1  0
 11 25  1  0
 12 26  1  0
M  CHG  2  13   1  14  -1
M  END
