
     RDKit          3D

 55 59  0  0  0  0  0  0  0  0999 V2000
    3.5312   -3.0949   -2.9316 C   0  0  0  0  0  0  0  0  0  0  0  0
    3.7187   -1.7165   -2.9404 C   0  0  0  0  0  0  0  0  0  0  0  0
    3.0023   -0.9822   -1.9971 C   0  0  0  0  0  0  0  0  0  0  0  0
    2.1460   -1.5812   -1.0934 C   0  0  0  0  0  0  0  0  0  0  0  0
    1.3136   -0.5000    0.0371 P   0  0  0  0  0  5  0  0  0  0  0  0
    2.5100    0.6814    0.6451 C   0  0  0  0  0  0  0  0  0  0  0  0
    2.6401    1.8565   -0.0495 C   0  0  0  0  0  0  0  0  0  0  0  0
    3.5427    2.8337    0.3467 C   0  0  0  0  0  0  0  0  0  0  0  0
    4.3443    2.6500    1.4628 C   0  0  0  0  0  0  0  0  0  0  0  0
    4.2003    1.4525    2.1564 C   0  0  0  0  0  0  0  0  0  0  0  0
    3.3016    0.4800    1.7616 C   0  0  0  0  0  0  0  0  0  0  0  0
    0.6841   -1.6082    1.4782 S   0  0  0  0  0  4  0  0  0  0  0  0
    0.2816    0.0191    2.8705 Cu  0  0  0  0  0  3  0  0  0  0  0  0
   -0.0944   -0.8872    4.7867 I   0  0  0  0  0  0  0  0  0  0  0  0
   -0.7383    1.1325    2.0619 S   0  0  0  0  0  4  0  0  0  0  0  0
   -1.4247    0.5849    0.4054 P   0  0  0  0  0  5  0  0  0  0  0  0
   -2.5124    1.7865   -0.3305 C   0  0  0  0  0  0  0  0  0  0  0  0
   -3.3885    1.3677   -1.3150 C   0  0  0  0  0  0  0  0  0  0  0  0
   -4.2068    2.3348   -1.8507 C   0  0  0  0  0  0  0  0  0  0  0  0
   -4.1835    3.6597   -1.4535 C   0  0  0  0  0  0  0  0  0  0  0  0
   -3.3016    4.0523   -0.4707 C   0  0  0  0  0  0  0  0  0  0  0  0
   -2.4703    3.1010    0.0824 C   0  0  0  0  0  0  0  0  0  0  0  0
   -2.3217   -0.9354    0.6720 C   0  0  0  0  0  0  0  0  0  0  0  0
   -2.9003   -1.1780    1.9209 C   0  0  0  0  0  0  0  0  0  0  0  0
   -3.5973   -2.3608    2.1260 C   0  0  0  0  0  0  0  0  0  0  0  0
   -3.6702   -3.2294    1.0604 C   0  0  0  0  0  0  0  0  0  0  0  0
   -3.1124   -3.0277   -0.1906 C   0  0  0  0  0  0  0  0  0  0  0  0
   -2.4235   -1.8351   -0.3589 C   0  0  0  0  0  0  0  0  0  0  0  0
   -0.0581    0.3377   -0.7765 C   0  0  0  0  0  0  0  0  0  0  0  0
    1.9976   -2.9581   -1.1299 C   0  0  0  0  0  0  0  0  0  0  0  0
    2.6904   -3.7384   -2.0527 C   0  0  0  0  0  0  0  0  0  0  0  0
    4.0955   -3.6710   -3.6742 H   0  0  0  0  0  0  0  0  0  0  0  0
    4.3901   -1.2465   -3.6488 H   0  0  0  0  0  0  0  0  0  0  0  0
    3.1776    0.0727   -2.0408 H   0  0  0  0  0  0  0  0  0  0  0  0
    2.0988    2.1593   -0.9329 H   0  0  0  0  0  0  0  0  0  0  0  0
    3.6941    3.7824   -0.1571 H   0  0  0  0  0  0  0  0  0  0  0  0
    5.0680    3.3959    1.8077 H   0  0  0  0  0  0  0  0  0  0  0  0
    4.8270    1.3150    3.0246 H   0  0  0  0  0  0  0  0  0  0  0  0
    3.1895   -0.4444    2.2960 H   0  0  0  0  0  0  0  0  0  0  0  0
    1.8421   -2.0664    2.1166 H   0  0  0  0  0  0  0  0  0  0  0  0
   -0.9449    2.4220    2.3953 H   0  0  0  0  0  0  0  0  0  0  0  0
   -3.4491    0.3405   -1.6650 H   0  0  0  0  0  0  0  0  0  0  0  0
   -4.9196    2.0527   -2.6352 H   0  0  0  0  0  0  0  0  0  0  0  0
   -4.8571    4.3729   -1.9180 H   0  0  0  0  0  0  0  0  0  0  0  0
   -3.3072    5.0963   -0.1813 H   0  0  0  0  0  0  0  0  0  0  0  0
   -1.7979    3.4646    0.8499 H   0  0  0  0  0  0  0  0  0  0  0  0
   -2.8150   -0.4637    2.7271 H   0  0  0  0  0  0  0  0  0  0  0  0
   -4.0692   -2.6118    3.0672 H   0  0  0  0  0  0  0  0  0  0  0  0
   -4.2165   -4.1587    1.2178 H   0  0  0  0  0  0  0  0  0  0  0  0
   -3.2116   -3.7581   -0.9816 H   0  0  0  0  0  0  0  0  0  0  0  0
   -1.9747   -1.6495   -1.3314 H   0  0  0  0  0  0  0  0  0  0  0  0
   -0.4296   -0.2428   -1.6665 H   0  0  0  0  0  0  0  0  0  0  0  0
    0.2486    1.3290   -1.1543 H   0  0  0  0  0  0  0  0  0  0  0  0
    1.3080   -3.3815   -0.3932 H   0  0  0  0  0  0  0  0  0  0  0  0
    2.5527   -4.8059   -2.0545 H   0  0  0  0  0  0  0  0  0  0  0  0
  1  2  2  0
  2  3  1  0
  3  4  2  0
  4  5  1  0
  5  6  1  0
  6  7  2  0
  7  8  1  0
  8  9  2  0
  9 10  1  0
 10 11  2  0
  5 12  2  0
 12 13  1  0
 13 14  1  0
 13 15  1  0
 15 16  2  0
 16 17  1  0
 17 18  2  0
 18 19  1  0
 19 20  2  0
 20 21  1  0
 21 22  2  0
 16 23  1  0
 23 24  2  0
 24 25  1  0
 25 26  2  0
 26 27  1  0
 27 28  2  0
 16 29  1  0
  4 30  1  0
 30 31  2  0
 31  1  1  0
 29  5  1  0
 11  6  1  0
 22 17  1  0
 28 23  1  0
  1 32  1  0
  2 33  1  0
  3 34  1  0
  7 35  1  0
  8 36  1  0
  9 37  1  0
 10 38  1  0
 11 39  1  0
 12 40  1  0
 15 41  1  0
 18 42  1  0
 19 43  1  0
 20 44  1  0
 21 45  1  0
 22 46  1  0
 24 47  1  0
 25 48  1  0
 26 49  1  0
 27 50  1  0
 28 51  1  0
 29 52  1  0
 29 53  1  0
 30 54  1  0
 31 55  1  0
M  END
