
  --CCDC--092525    3D                              

 68 74  0  0  0  0  0  0  0  0999 V2000
    1.4257   -3.6776   -5.1922 H      0
    1.2662   -3.5801   -4.1202 C      0
    0.1970   -3.4820   -3.9445 H      0
    1.6057   -4.4966   -3.6424 H      0
    2.1434   -2.1761   -3.4785 S      0
    1.9352   -2.3143   -2.0664 O      0
    2.4854   -0.0434   -0.8812 U      3
    0.8142    0.3695   -2.8673 O      0
    0.2963   -0.6967   -3.6702 S      0
   -1.4133   -0.2711   -3.8845 C      0
   -1.9504   -1.0871   -4.3623 H      0
   -1.4977    0.6012   -4.5278 H      0
   -1.9234   -0.0320   -2.9557 H      0
    0.7462   -0.1632   -5.3041 C      0
    0.3011   -0.8094   -6.0576 H      0
    0.4037    0.8538   -5.4846 H      0
    1.8262   -0.1849   -5.4339 H      0
    1.7991    2.5112   -1.0348 O      0
    0.3481    2.3797   -0.7007 C      0
   -0.2323    3.4447   -0.6404 O      0
   -0.6763    1.1521   -0.4620 C      0
   -1.4805    1.4312    0.2420 H      0
   -1.1801    0.9086   -1.4093 H      0
   -0.0127    0.0028    0.0054 N      0
   -0.4569   -1.0646   -0.5785 C      0
   -0.4042   -2.1577   -0.2069 H      0
   -1.0301   -1.1155   -1.5918 H      0
    1.9892    0.2962   -0.6773 C      0
    2.3693   -0.4388   -1.3893 H      0
    1.6547    1.0097   -1.3995 H      0
    4.4712    1.4374   -0.6397 N      0
    5.6304    0.6087   -0.2865 C      0
    6.3737    1.0510    0.4698 H      0
    6.2631    0.2945   -1.1818 H      0
    4.0073   -0.8278    0.4552 C      0
    4.5546   -1.6064    1.3392 O      0
    2.1795   -1.8820    0.8881 O      0
    4.7930    2.2609   -1.7494 C      0
    5.3860    3.2226   -1.6778 H      0
    4.0662    2.3993   -2.5861 H      0
    3.6767    1.8761   -0.0145 C      0
    4.4836    2.1560    0.6564 H      0
    3.1614    2.8293    0.0562 H      0
    2.7426    0.9491    1.5299 N      0
    1.8245    1.3343    1.9150 H      0
    3.7133    0.5738    2.4759 C      0
    4.4609    1.4131    2.7213 H      0
    3.3746    0.1046    3.4772 H      0
    3.8798   -0.6762    0.5383 C      0
    4.2097   -1.5355    1.2032 H      0
    2.8397   -1.0256    0.2866 H      0
    4.5231   -1.3910   -0.4691 N      0
    4.9291   -1.0882    0.5906 C      0
    5.9036   -1.6351    0.7700 H      0
    5.2034   -0.1214    1.0342 H      0
    4.5852   -0.5147   -1.4490 C      0
    5.2898   -1.3530   -2.0112 O      0
    3.7963    0.1212   -3.0939 O      0
    2.5745   -0.1635    0.4732 C      0
    2.9853   -0.0304    1.4790 H      0
    2.6907    0.9023    0.0239 H      0
    0.2213    0.0605    1.3642 C      0
   -0.1758    1.0440    1.8666 H      0
   -0.2624   -0.7994    1.9830 H      0
    3.7359   -2.8739   -3.8090 C      0
    3.6559   -3.6456   -4.5709 H      0
    4.1619   -3.3247   -2.9145 H      0
    4.4207   -2.1205   -4.1891 H      0
  1  2  1
  2  3  1
  2  4  1
  2  5  1
  5  6  2
  6  7  1
  7  8  1
  8  9  2
  9 10  1
 10 11  1
 10 12  1
 10 13  1
  9 14  1
 14 15  1
 14 16  1
 14 17  1
  7 18  1
 18 19  1
 19 20  2
 19 21  1
 21 22  1
 21 23  1
 21 24  1
  7 24  1
 24 25  1
 25 26  1
 25 27  1
 25 28  1
 28 29  1
 28 30  1
 28 31  1
  7 31  1
 31 32  1
 32 33  1
 32 34  1
 32 35  1
 35 36  2
 35 37  1
  7 37  1
 31 38  1
 38 39  1
 38 40  1
 38 41  1
 41 42  1
 41 43  1
 41 44  1
  7 44  1
 44 45  1
 44 46  1
 46 47  1
 46 48  1
 46 49  1
 49 50  1
 49 51  1
 49 52  1
  7 52  1
 52 53  1
 53 54  1
 53 55  1
 53 56  1
 56 57  2
 56 58  1
  7 58  1
 52 59  1
 59 60  1
 59 61  1
 59 62  1
 24 62  1
 62 63  1
 62 64  1
  5 65  1
 65 66  1
 65 67  1
 65 68  1
M  CHG  1   7   1
M  END
$$$$
