
  --CCDC--092525    3D                              

 34 33  0  0  0  0  0  0  0  0999 V2000
   -0.0000   -0.0000    0.0000 H      0
    0.5440    0.9422   -0.0000 C      0
    0.7406    1.2201   -1.0334 H      0
    1.4993    0.7821    0.4955 H      0
   -0.2211    1.9801    0.6770 C      0
   -0.8282    2.8036    1.1822 N      0
   -2.2913    4.7882    2.3999 La     0
    0.2285    4.6109    4.4921 Br     0
   -2.0142    7.6366    4.0026 Br     0
   -5.0940    5.3658    4.0031 Br     0
   -2.7736    2.7263    4.1545 N      0
   -2.9758    1.8717    4.8834 C      0
   -3.2653    0.7751    5.7969 C      0
   -4.3390    0.6401    5.9094 H      0
   -2.8434    0.9709    6.7805 H      0
   -2.8434   -0.1569    5.4266 H      0
   -3.5109    6.4419    0.5723 N      0
   -4.0170    7.1279   -0.1861 C      0
   -4.6951    7.9942   -1.1403 C      0
   -5.7750    7.9053   -1.0423 H      0
   -4.4245    7.7306   -2.1606 H      0
   -4.4245    9.0352   -0.9761 H      0
   -0.3615    5.9549    0.8261 N      0
    0.4396    6.4373    0.1726 C      0
    1.4875    7.0353   -0.6430 C      0
    2.0947    6.2660   -1.1155 H      0
    2.1413    7.6574   -0.0354 H      0
    1.0591    7.6574   -1.4260 H      0
   -3.9768    3.2894    0.8267 N      0
   -4.6755    2.6671    0.1737 C      0
   -5.5580    1.8436   -0.6411 C      0
   -5.3756    2.0138   -1.7001 H      0
   -6.6009    2.0754   -0.4352 H      0
   -5.3986    0.7872   -0.4352 H      0
  1  2  1
  2  3  1
  2  4  1
  2  5  1
  5  6  3
  6  7  1
  7  8  1
  7  9  1
  7 10  1
  7 11  1
 11 12  3
 12 13  1
 13 14  1
 13 15  1
 13 16  1
  7 17  1
 17 18  3
 18 19  1
 19 20  1
 19 21  1
 19 22  1
  7 23  1
 23 24  3
 24 25  1
 25 26  1
 25 27  1
 25 28  1
  7 29  1
 29 30  3
 30 31  1
 31 32  1
 31 33  1
 31 34  1
M  END
$$$$
