
 OpenBabel09252514183D

 87103  0  0  1  0  0  0  0  0999 V2000
    0.9097   -0.0125    0.0410 H   0  0  0  0  0  0  0  0  0  0  0  0
    1.9797   -0.0125    0.0410 C   0  0  0  0  0  3  0  0  0  0  0  0
    2.4919   -1.3954   -0.3681 C   0  0  0  0  0  3  0  0  0  0  0  0
    2.1028   -2.1328    0.3025 H   0  0  0  0  0  0  0  0  0  0  0  0
    2.0617   -1.6876   -1.6993 C   0  0  0  0  0  3  0  0  0  0  0  0
    2.4020   -2.6693   -1.9547 H   0  0  0  0  0  0  0  0  0  0  0  0
    2.5491   -0.7736   -2.6834 C   0  0  0  0  0  3  0  0  0  0  0  0
    4.3790   -0.7778   -2.6668 P   0  3  0  0  0  0  0  0  0  0  0  0
    4.9886   -2.4617   -3.0434 C   0  0  0  0  0  3  0  0  0  0  0  0
    3.9058   -2.7521   -2.0014 C   0  0  0  0  0  3  0  0  0  0  0  0
    3.8758   -1.9562   -1.2868 H   0  0  0  0  0  0  0  0  0  0  0  0
    2.6370   -2.8580   -2.6505 C   0  0  0  0  0  3  0  0  0  0  0  0
    1.8904   -3.0290   -1.9033 H   0  0  0  0  0  0  0  0  0  0  0  0
    2.5599   -3.9124   -3.6115 C   0  0  0  0  0  3  0  0  0  0  0  0
    2.7655   -4.8471   -3.1329 H   0  0  0  0  0  0  0  0  0  0  0  0
    3.5882   -3.6690   -4.7186 C   0  0  0  0  0  3  0  0  0  0  0  0
    3.5612   -4.4793   -5.4169 H   0  0  0  0  0  0  0  0  0  0  0  0
    4.9846   -3.5754   -4.0957 C   0  0  0  0  0  3  0  0  0  0  0  0
    5.2338   -4.5072   -3.6325 H   0  0  0  0  0  0  0  0  0  0  0  0
    5.2419    0.8408   -4.4094 Ru  0  0  0  0  0  0  0  0  0  0  0  0
    6.7629    0.2504   -3.7230 H   0  0  0  0  0  0  0  0  0  0  0  0
    3.3025    4.1871   -7.5146 Ru  0  0  0  0  0  0  0  0  0  0  0  0
    4.2722    2.5139   -5.9620 Cl  0  0  0  0  0  2  0  0  0  0  0  0
    4.3190    6.3843   -8.1178 C   0  0  2  0  0  0  0  0  0  0  0  0
    5.1258    7.3689   -8.9485 C   0  0  0  0  0  0  0  0  0  0  0  0
    4.8172    8.3671   -8.7177 H   0  0  0  0  0  0  0  0  0  0  0  0
    6.1660    7.2563   -8.7245 H   0  0  0  0  0  0  0  0  0  0  0  0
    4.9620    7.1764   -9.9883 H   0  0  0  0  0  0  0  0  0  0  0  0
    3.0924    5.4851   -8.3011 C   0  0  2  0  0  0  0  0  0  0  0  0
    1.8549    6.1999   -7.7833 C   0  0  0  0  0  0  0  0  0  0  0  0
    1.9803    6.4229   -6.7444 H   0  0  0  0  0  0  0  0  0  0  0  0
    1.7139    7.1094   -8.3289 H   0  0  0  0  0  0  0  0  0  0  0  0
    0.9993    5.5703   -7.9122 H   0  0  0  0  0  0  0  0  0  0  0  0
    2.3394    5.2248   -5.4651 C   0  0  2  0  0  0  0  0  0  0  0  0
    2.0708    6.5037   -6.2415 C   0  0  0  0  0  0  0  0  0  0  0  0
    2.9200    7.1504   -6.1682 H   0  0  0  0  0  0  0  0  0  0  0  0
    1.8911    6.2660   -7.2692 H   0  0  0  0  0  0  0  0  0  0  0  0
    1.2122    6.9949   -5.8336 H   0  0  0  0  0  0  0  0  0  0  0  0
    3.5592    4.5271   -6.0446 C   0  0  2  0  0  0  0  0  0  0  0  0
    3.8275    3.2483   -5.2680 C   0  0  0  0  0  0  0  0  0  0  0  0
    4.6859    2.7568   -5.6758 H   0  0  0  0  0  0  0  0  0  0  0  0
    4.0073    3.4861   -4.2404 H   0  0  0  0  0  0  0  0  0  0  0  0
    2.9780    2.6017   -5.3411 H   0  0  0  0  0  0  0  0  0  0  0  0
    4.6937    5.3907   -5.9470 C   0  0  2  0  0  0  0  0  0  0  0  0
    5.8693    5.5725   -5.0008 C   0  0  0  0  0  0  0  0  0  0  0  0
    5.5061    5.7973   -4.0198 H   0  0  0  0  0  0  0  0  0  0  0  0
    6.4451    4.6712   -4.9702 H   0  0  0  0  0  0  0  0  0  0  0  0
    6.4842    6.3770   -5.3465 H   0  0  0  0  0  0  0  0  0  0  0  0
    4.5362    6.6389   -6.6243 C   0  0  1  0  0  0  0  0  0  0  0  0
    4.8675    8.0023   -6.0397 C   0  0  0  0  0  0  0  0  0  0  0  0
    4.2767    8.1676   -5.1631 H   0  0  0  0  0  0  0  0  0  0  0  0
    5.9054    8.0372   -5.7821 H   0  0  0  0  0  0  0  0  0  0  0  0
    4.6536    8.7618   -6.7624 H   0  0  0  0  0  0  0  0  0  0  0  0
    3.4420    2.5313   -4.0525 C   0  0  2  0  0  0  0  0  0  0  0  0
    2.5877    3.5187   -3.2743 C   0  0  0  0  0  0  0  0  0  0  0  0
    2.1408    4.2154   -3.9523 H   0  0  0  0  0  0  0  0  0  0  0  0
    1.8201    2.9896   -2.7491 H   0  0  0  0  0  0  0  0  0  0  0  0
    3.2008    4.0460   -2.5737 H   0  0  0  0  0  0  0  0  0  0  0  0
    4.9221    2.3392   -4.3976 C   0  0  2  0  0  0  0  0  0  0  0  0
    5.2068    2.9316   -5.7681 C   0  0  0  0  0  0  0  0  0  0  0  0
    4.6036    2.4390   -6.5019 H   0  0  0  0  0  0  0  0  0  0  0  0
    4.9761    3.9765   -5.7599 H   0  0  0  0  0  0  0  0  0  0  0  0
    6.2409    2.7965   -6.0073 H   0  0  0  0  0  0  0  0  0  0  0  0
    4.5762    0.6758   -6.8040 C   0  0  2  0  0  0  0  0  0  0  0  0
    4.3062    2.1714   -6.8298 C   0  0  0  0  0  0  0  0  0  0  0  0
    3.2869    2.3545   -6.5605 H   0  0  0  0  0  0  0  0  0  0  0  0
    4.9529    2.6627   -6.1331 H   0  0  0  0  0  0  0  0  0  0  0  0
    4.4886    2.5499   -7.8138 H   0  0  0  0  0  0  0  0  0  0  0  0
    4.3171    0.1382   -5.4061 C   0  0  2  0  0  0  0  0  0  0  0  0
    4.5873   -1.3574   -5.3807 C   0  0  0  0  0  0  0  0  0  0  0  0
    4.4052   -1.7361   -4.3967 H   0  0  0  0  0  0  0  0  0  0  0  0
    3.9404   -1.8486   -6.0773 H   0  0  0  0  0  0  0  0  0  0  0  0
    5.6065   -1.5404   -5.6503 H   0  0  0  0  0  0  0  0  0  0  0  0
    2.9558    0.3827   -5.0460 C   0  0  2  0  0  0  0  0  0  0  0  0
    1.6525   -0.3995   -5.0456 C   0  0  0  0  0  0  0  0  0  0  0  0
    1.4226   -0.7101   -6.0434 H   0  0  0  0  0  0  0  0  0  0  0  0
    1.7535   -1.2606   -4.4184 H   0  0  0  0  0  0  0  0  0  0  0  0
    0.8640    0.2214   -4.6746 H   0  0  0  0  0  0  0  0  0  0  0  0
    2.5871    1.7629   -5.0631 C   0  0  2  0  0  0  0  0  0  0  0  0
    1.3341    2.3283   -5.7117 C   0  0  0  0  0  0  0  0  0  0  0  0
    1.3418    2.1041   -6.7579 H   0  0  0  0  0  0  0  0  0  0  0  0
    0.4693    1.8897   -5.2593 H   0  0  0  0  0  0  0  0  0  0  0  0
    1.3091    3.3892   -5.5745 H   0  0  0  0  0  0  0  0  0  0  0  0
    2.0392    0.6346   -2.3679 C   0  0  0  0  0  3  0  0  0  0  0  0
    2.4375    1.3274   -3.0793 H   0  0  0  0  0  0  0  0  0  0  0  0
    2.4925    1.0292   -0.9588 C   0  0  0  0  0  3  0  0  0  0  0  0
    3.5613    1.0650   -0.9228 H   0  0  0  0  0  0  0  0  0  0  0  0
  1  2  1  0  0  0  0
  2  3  1  0  0  0  0
  2 86  1  0  0  0  0
  3  4  1  0  0  0  0
  3  5  1  0  0  0  0
  5  6  1  0  0  0  0
  5  7  1  0  0  0  0
  7  8  1  0  0  0  0
  7 84  1  0  0  0  0
  8  9  1  0  0  0  0
  8 20  1  0  0  0  0
  8 22  1  0  0  0  0
  9 10  1  0  0  0  0
  9 18  1  0  0  0  0
 10 11  1  0  0  0  0
 10 12  1  0  0  0  0
 12 13  1  0  0  0  0
 12 14  1  0  0  0  0
 14 15  1  0  0  0  0
 14 16  1  0  0  0  0
 16 17  1  0  0  0  0
 16 18  1  0  0  0  0
 18 19  1  0  0  0  0
 20 21  1  0  0  0  0
 20 22  1  0  0  0  0
 20 23  1  0  0  0  0
 20 54  1  0  0  0  0
 20 59  1  0  0  0  0
 20 64  1  0  0  0  0
 20 69  1  0  0  0  0
 20 74  1  0  0  0  0
 20 79  1  0  0  0  0
 21 22  1  0  0  0  0
 22 23  1  0  0  0  0
 22 24  1  0  0  0  0
 22 29  1  0  0  0  0
 22 34  1  0  0  0  0
 22 39  1  0  0  0  0
 22 44  1  0  0  0  0
 22 49  1  0  0  0  0
 24 25  1  1  0  0  0
 24 29  1  0  0  0  0
 24 49  1  0  0  0  0
 25 26  1  0  0  0  0
 25 27  1  0  0  0  0
 25 28  1  0  0  0  0
 29 30  1  1  0  0  0
 29 34  1  0  0  0  0
 30 31  1  0  0  0  0
 30 32  1  0  0  0  0
 30 33  1  0  0  0  0
 34 35  1  6  0  0  0
 34 39  1  0  0  0  0
 35 36  1  0  0  0  0
 35 37  1  0  0  0  0
 35 38  1  0  0  0  0
 39 40  1  6  0  0  0
 39 44  1  0  0  0  0
 40 41  1  0  0  0  0
 40 42  1  0  0  0  0
 40 43  1  0  0  0  0
 44 45  1  6  0  0  0
 44 49  1  0  0  0  0
 45 46  1  0  0  0  0
 45 47  1  0  0  0  0
 45 48  1  0  0  0  0
 49 50  1  6  0  0  0
 50 51  1  0  0  0  0
 50 52  1  0  0  0  0
 50 53  1  0  0  0  0
 54 55  1  6  0  0  0
 54 59  1  0  0  0  0
 54 79  1  0  0  0  0
 55 56  1  0  0  0  0
 55 57  1  0  0  0  0
 55 58  1  0  0  0  0
 59 60  1  6  0  0  0
 59 64  1  0  0  0  0
 60 61  1  0  0  0  0
 60 62  1  0  0  0  0
 60 63  1  0  0  0  0
 64 65  1  1  0  0  0
 64 69  1  0  0  0  0
 65 66  1  0  0  0  0
 65 67  1  0  0  0  0
 65 68  1  0  0  0  0
 69 70  1  6  0  0  0
 69 74  1  0  0  0  0
 70 71  1  0  0  0  0
 70 72  1  0  0  0  0
 70 73  1  0  0  0  0
 74 75  1  6  0  0  0
 74 79  1  0  0  0  0
 75 76  1  0  0  0  0
 75 77  1  0  0  0  0
 75 78  1  0  0  0  0
 79 80  1  6  0  0  0
 80 81  1  0  0  0  0
 80 82  1  0  0  0  0
 80 83  1  0  0  0  0
 84 85  1  0  0  0  0
 84 86  1  0  0  0  0
 86 87  1  0  0  0  0
M  CHG  1   8   1
M  END
$$$$
