
  --CCDC--092525    3D                              

114121  0  0  0  0  0  0  0  0999 V2000
    0.5702   -0.2456    0.0920 H      0
    0.9684    0.7624    0.1064 C      0
    0.9958    1.5114   -1.0565 C      0
    0.6162    1.0827   -1.9774 H      0
    1.5246    2.7996   -1.0682 C      0
    1.5860    3.5896   -2.3665 C      0
    1.9864    4.5924   -2.1492 H      0
    2.5172    2.9046   -3.3652 C      0
    2.5721    3.4698   -4.2928 H      0
    2.1644    1.9028   -3.5992 H      0
    3.5230    2.8228   -2.9598 H      0
    0.2027    3.7515   -2.9955 C      0
    0.0705    3.0647   -3.8288 H      0
    0.0679    4.7644   -3.3705 H      0
   -0.5779    3.5541   -2.2636 H      0
    2.0045    3.3209    0.1446 C      0
    2.5945    4.6110    0.1205 N      0
    3.9914    4.7534   -0.1152 C      0
    4.5169    6.0250   -0.2651 C      0
    5.9579    5.9249   -0.5446 C      0
    7.0219    6.7615   -0.8050 C      0
    6.8728    7.8365   -0.8205 H      0
    8.2836    6.2338   -1.0543 C      0
    9.1023    6.9141   -1.2644 H      0
    8.5257    4.8890   -1.0467 C      0
    9.5251    4.5196   -1.2453 H      0
    7.4725    3.9822   -0.7871 C      0
    7.5678    2.5718   -0.7494 C      0
    8.5214    2.0857   -0.9233 H      0
    6.4564    1.8165   -0.4969 C      0
    6.5500    0.7347   -0.4703 H      0
    5.2096    2.3886   -0.2716 C      0
    4.3528    1.7540   -0.0752 H      0
    5.0570    3.7571   -0.2912 C      0
    6.2018    4.5376   -0.5455 C      0
    3.6491    7.1563   -0.1841 N      0
    4.1724    8.4586   -0.4443 C      0
    4.4539    8.8659   -1.7678 C      0
    4.6930    7.9317   -2.9498 C      0
    4.6565    6.8864   -2.6200 H      0
    6.0927    8.1771   -3.5108 C      0
    6.5782    7.2331   -3.7486 H      0
    6.7100    8.6969   -2.7813 H      0
    6.0558    8.7820   -4.4143 H      0
    3.6801    8.0730   -4.0783 C      0
    4.1855    8.0713   -5.0409 H      0
    3.1144    8.9971   -3.9878 H      0
    2.9938    7.2322   -4.0686 H      0
    4.6426   10.2299   -1.9821 C      0
    4.7432   10.6014   -2.9956 H      0
    4.7381   11.1208   -0.9304 C      0
    4.8614   12.1805   -1.1257 H      0
    4.7268   10.6476    0.3676 C      0
    4.9151   11.3393    1.1805 H      0
    4.5036    9.2981    0.6351 C      0
    4.7016    8.7615    2.0429 C      0
    4.1825    7.7955    2.1191 H      0
    4.1712    9.7253    3.1018 C      0
    3.2470   10.1918    2.7773 H      0
    4.8936   10.5165    3.2900 H      0
    3.9849    9.2039    4.0386 H      0
    6.1867    8.5245    2.3198 C      0
    6.5980    7.7963    1.6246 H      0
    6.3351    8.1482    3.3303 H      0
    6.7525    9.4485    2.2176 H      0
    1.0729    6.7708    0.4069 Eu     0
    0.8090    7.9199   -1.9768 N      0
    0.5837    8.5420   -3.1357 C      0
    0.2950    9.3389   -4.6204 S      0
   -0.9441    5.3826   -0.6120 O      0
   -1.6150    5.8666   -1.7437 C      0
   -2.3061    6.6615   -1.4737 H      0
   -2.1857    5.0713   -2.2160 H      0
   -0.9103    6.2592   -2.4722 H      0
   -1.8303    4.8833    0.3674 C      0
   -2.4452    5.6903    0.7850 H      0
   -2.5187    4.1578   -0.0823 H      0
   -1.0235    4.2295    1.4541 C      0
   -1.6820    3.7337    2.1784 H      0
   -0.3887    3.4500    1.0248 H      0
   -0.2541    5.2187    2.1038 O      0
   -1.0086    5.8179    3.1239 C      0
   -2.0734    5.7431    2.9159 H      0
   -0.8152    5.3245    4.0741 H      0
   -0.7624    6.8692    3.2353 H      0
   -0.3038    8.9738    0.9299 O      0
   -1.1152    9.5366   -0.0676 C      0
   -1.7227   10.3440    0.3360 H      0
   -1.7817    8.7839   -0.4844 H      0
   -0.5118    9.9376   -0.8783 H      0
    0.4402    9.9064    1.6737 C      0
    1.2952   10.2693    1.0906 H      0
   -0.1766   10.7782    1.9213 H      0
    0.8974    9.1990    2.9180 C      0
    1.4109    9.9019    3.5843 H      0
    0.0282    8.8220    3.4702 H      0
    1.7670    8.1339    2.5795 O      0
    2.1675    7.4324    3.7292 C      0
    2.3164    8.1117    4.5658 H      0
    3.1001    6.9011    3.5530 H      0
    1.4142    6.7068    4.0254 H      0
    1.9671    2.5905    1.3422 C      0
    2.4297    3.1810    2.6632 C      0
    2.7617    4.2154    2.4824 H      0
    3.6020    2.3916    3.2411 C      0
    4.4534    2.4155    2.5645 H      0
    3.9133    2.8115    4.1948 H      0
    3.3240    1.3531    3.4042 H      0
    1.2837    3.2136    3.6733 C      0
    1.5647    2.7103    4.5959 H      0
    0.4036    2.7150    3.2731 H      0
    1.0112    4.2386    3.9145 H      0
    1.4470    1.2984    1.2893 C      0
    1.4208    0.6979    2.1914 H      0
  1  2  1
  2  3  4
  3  4  1
  3  5  4
  5  6  1
  6  7  1
  6  8  1
  8  9  1
  8 10  1
  8 11  1
  6 12  1
 12 13  1
 12 14  1
 12 15  1
  5 16  4
 16 17  1
 17 18  1
 18 19  2
 19 20  1
 20 21  4
 21 22  1
 21 23  4
 23 24  1
 23 25  4
 25 26  1
 25 27  4
 27 28  4
 28 29  1
 28 30  4
 30 31  1
 30 32  4
 32 33  1
 32 34  4
 18 34  1
 34 35  4
 20 35  4
 27 35  4
 19 36  1
 36 37  1
 37 38  4
 38 39  1
 39 40  1
 39 41  1
 41 42  1
 41 43  1
 41 44  1
 39 45  1
 45 46  1
 45 47  1
 45 48  1
 38 49  4
 49 50  1
 49 51  4
 51 52  1
 51 53  4
 53 54  1
 53 55  4
 37 55  4
 55 56  1
 56 57  1
 56 58  1
 58 59  1
 58 60  1
 58 61  1
 56 62  1
 62 63  1
 62 64  1
 62 65  1
 36 66  1
 17 66  1
 66 67  1
 67 68  4
 68 69  4
 66 70  1
 70 71  1
 71 72  1
 71 73  1
 71 74  1
 70 75  1
 75 76  1
 75 77  1
 75 78  1
 78 79  1
 78 80  1
 78 81  1
 66 81  1
 81 82  1
 82 83  1
 82 84  1
 82 85  1
 66 86  1
 86 87  1
 87 88  1
 87 89  1
 87 90  1
 86 91  1
 91 92  1
 91 93  1
 91 94  1
 94 95  1
 94 96  1
 94 97  1
 66 97  1
 97 98  1
 98 99  1
 98100  1
 98101  1
 16102  4
102103  1
103104  1
103105  1
105106  1
105107  1
105108  1
103109  1
109110  1
109111  1
109112  1
102113  4
  2113  4
113114  1
M  END
$$$$
