
  --CCDC--092525    3D                              

 62 63  0  0  0  0  0  0  0  0999 V2000
    0.0189   -0.0769   -0.0522 C      0
    1.9604   -0.0050   -0.6747 Pt     0
    1.3300    1.0030   -2.3345 C      0
    1.7482   -1.7842   -1.6491 C      0
    2.5341   -0.9824    1.0235 N      0
    1.6684   -1.7501    1.7417 N      0
    2.4293   -2.3336    2.6466 C      0
    1.8233   -3.2299    3.6794 C      0
    1.5511   -2.5199    4.9974 C      0
    2.6188   -1.5719    5.4959 C      0
    4.0238   -2.1793    5.6722 C      0
    5.0440   -1.6790    4.6820 C      0
    5.0067   -2.2206    3.2612 C      0
    3.7612   -1.9121    2.4689 C      0
    3.8197   -1.0707    1.4565 N      0
    4.2494    0.0645   -1.4579 P      0
    4.8184   -1.6328   -1.7159 C      0
    5.4265    0.8571   -0.3324 C      0
    4.3755    0.9365   -3.0378 C      0
    2.2118    2.1023    0.4794 P      0
    0.5794    2.6934    0.9864 C      0
    3.1924    1.8997    1.9876 C      0
    2.9455    3.3891   -0.5637 C      0
   -0.5399    0.7316   -0.5193 H      0
   -0.4193   -1.0310   -0.3375 H      0
   -0.0209    0.0327    1.0295 H      0
    0.2558    0.8657   -2.4394 H      0
    1.8185    0.6086   -3.2211 H      0
    1.5413    2.0630   -2.2381 H      0
    0.7165   -2.1204   -1.5707 H      0
    2.4066   -2.5241   -1.1988 H      0
    2.0099   -1.6564   -2.6974 H      0
    2.5071   -4.0568    3.8655 H      0
    0.8817   -3.6174    3.2931 H      0
    1.4077   -3.2844    5.7596 H      0
    0.6320   -1.9479    4.8795 H      0
    2.2979   -1.1853    6.4620 H      0
    2.6961   -0.7514    4.7840 H      0
    3.9444   -3.2599    5.5637 H      0
    4.3755   -1.9400    6.6747 H      0
    6.0270   -1.9119    5.0886 H      0
    4.9249   -0.5985    4.6168 H      0
    5.1079   -3.3036    3.3147 H      0
    5.8561   -1.8028    2.7229 H      0
    4.1885   -2.1471   -2.4385 H      0
    5.8408   -1.6448   -2.0874 H      0
    4.7907   -2.1925   -0.7831 H      0
    5.7173    0.1991    0.4808 H      0
    5.0163    1.7629    0.1043 H      0
    6.3327    1.1285   -0.8701 H      0
    3.7549    0.4592   -3.7931 H      0
    5.4032    0.9341   -3.3952 H      0
    4.0543    1.9709   -2.9369 H      0
   -0.0609    2.8477    0.1204 H      0
    0.6607    3.6382    1.5201 H      0
    0.0948    1.9740    1.6432 H      0
    2.6138    1.3889    2.7546 H      0
    3.4913    2.8686    2.3825 H      0
    4.0931    1.3205    1.8063 H      0
    2.2522    3.7071   -1.3383 H      0
    3.1940    4.2656    0.0311 H      0
    3.8522    3.0446   -1.0526 H      0
  1  2  1
  2  3  1
  2  4  1
  2  5  1
  5  6  1
  6  7  2
  7  8  1
  8  9  1
  9 10  1
 10 11  1
 11 12  1
 12 13  1
 13 14  1
  7 14  1
 14 15  2
  5 15  1
  2 16  1
 16 17  1
 16 18  1
 16 19  1
  2 20  1
 20 21  1
 20 22  1
 20 23  1
  1 24  1
  1 25  1
  1 26  1
  3 27  1
  3 28  1
  3 29  1
  4 30  1
  4 31  1
  4 32  1
  8 33  1
  8 34  1
  9 35  1
  9 36  1
 10 37  1
 10 38  1
 11 39  1
 11 40  1
 12 41  1
 12 42  1
 13 43  1
 13 44  1
 17 45  1
 17 46  1
 17 47  1
 18 48  1
 18 49  1
 18 50  1
 19 51  1
 19 52  1
 19 53  1
 21 54  1
 21 55  1
 21 56  1
 22 57  1
 22 58  1
 22 59  1
 23 60  1
 23 61  1
 23 62  1
M  END
$$$$
