
  --CCDC--092525    3D                              

 42 41  0  0  0  0  0  0  0  0999 V2000
    0.0011    0.0021    0.0013 C      0
    1.9215    0.0039   -0.6788 Pt     0
    3.8477    0.0015   -1.3586 C      0
    2.3154    1.6647    0.4329 C      0
    1.5265   -1.6615   -1.7936 N      0
    1.3445   -1.5677   -3.0299 N      3
    1.1456   -1.6259   -4.1588 N      5
    2.5789   -1.4006    1.1706 P      0
    1.3932   -2.7525    1.3616 C      0
    4.2196   -2.1119    0.8995 C      0
    2.6049   -0.4314    2.6977 C      0
    1.2624    1.3821   -2.5529 P      0
   -0.3877    0.8958   -3.0922 C      0
    2.4156    1.1773   -3.9267 C      0
    1.1411    3.1633   -2.1960 C      0
   -0.5129    0.8885   -0.3626 H      0
   -0.5125   -0.8878   -0.3624 H      0
    0.0000    0.0001    1.0885 H      0
    4.0159   -0.8858   -1.9680 H      0
    4.5305   -0.0026   -0.5154 H      0
    4.0210    0.8904   -1.9580 H      0
    1.4366    1.9238    1.0192 H      0
    2.5686    2.4895   -0.2194 H      0
    3.1517    1.4677    1.0984 H      0
    1.3599   -3.3651    0.4635 H      0
    0.3938   -2.3658    1.5466 H      0
    1.6705   -3.3911    2.1978 H      0
    4.2768   -2.5902   -0.0762 H      0
    4.4419   -2.8582    1.6568 H      0
    4.9923   -1.3465    0.9491 H      0
    1.7262    0.2068    2.7649 H      0
    3.4880    0.2029    2.7379 H      0
    2.6167   -1.0844    3.5679 H      0
   -0.6317   -0.1442   -2.8723 H      0
   -0.4760    1.0306   -4.1612 H      0
   -1.1299    1.5013   -2.6022 H      0
    2.9792    0.2463   -3.8668 H      0
    3.1371    1.9779   -3.9369 H      0
    1.8778    1.1836   -4.8699 H      0
    0.4243    3.3531   -1.3984 H      0
    2.1030    3.5708   -1.8886 H      0
    0.8129    3.7048   -3.0806 H      0
  1  2  1
  2  3  1
  2  4  1
  2  5  1
  5  6  2
  6  7  2
  2  8  1
  8  9  1
  8 10  1
  8 11  1
  2 12  1
 12 13  1
 12 14  1
 12 15  1
  1 16  1
  1 17  1
  1 18  1
  3 19  1
  3 20  1
  3 21  1
  4 22  1
  4 23  1
  4 24  1
  9 25  1
  9 26  1
  9 27  1
 10 28  1
 10 29  1
 10 30  1
 11 31  1
 11 32  1
 11 33  1
 13 34  1
 13 35  1
 13 36  1
 14 37  1
 14 38  1
 14 39  1
 15 40  1
 15 41  1
 15 42  1
M  CHG  2   6   1   7  -1
M  END
$$$$
