
     RDKit          3D

 28 28  0  0  0  0  0  0  0  0999 V2000
   -0.4455    0.6496    0.0746 C   0  0  0  0  0  0  0  0  0  0  0  0
   -1.8991    0.7584    0.3046 C   0  0  0  0  0  0  0  0  0  0  0  0
   -2.5830    1.9063    0.0406 C   0  0  0  0  0  0  0  0  0  0  0  0
   -3.9917    2.0040    0.2479 C   0  0  0  0  0  0  0  0  0  0  0  0
   -5.1377    2.0686    0.4195 N   0  0  0  0  0  0  0  0  0  0  0  0
   -1.9501    3.0786   -0.4710 C   0  0  0  0  0  0  0  0  0  0  0  0
   -1.4213    4.0263   -0.8826 N   0  0  0  0  0  0  0  0  0  0  0  0
   -2.6065   -0.4703    0.8764 C   0  0  0  0  0  0  0  0  0  0  0  0
   -2.9947   -1.4740   -0.2031 C   0  0  0  0  0  0  0  0  0  0  0  0
    0.3292   -0.4297    0.2819 C   0  0  0  0  0  0  0  0  0  0  0  0
    1.7759   -0.4512    0.0129 C   0  0  0  0  0  0  0  0  0  0  0  0
    2.3373   -1.5950   -0.5743 C   0  0  0  0  0  0  0  0  0  0  0  0
    3.7107   -1.6639   -0.8201 C   0  0  0  0  0  0  0  0  0  0  0  0
    4.5241   -0.5942   -0.4686 C   0  0  0  0  0  0  0  0  0  0  0  0
    5.8410   -0.6615   -0.7025 F   0  0  0  0  0  0  0  0  0  0  0  0
    3.9914    0.5416    0.1280 C   0  0  0  0  0  0  0  0  0  0  0  0
    2.6179    0.6118    0.3741 C   0  0  0  0  0  0  0  0  0  0  0  0
    0.0517    1.5359   -0.3223 H   0  0  0  0  0  0  0  0  0  0  0  0
   -1.9860   -0.9560    1.6387 H   0  0  0  0  0  0  0  0  0  0  0  0
   -3.5128   -0.1866    1.4242 H   0  0  0  0  0  0  0  0  0  0  0  0
   -3.6778   -1.0255   -0.9322 H   0  0  0  0  0  0  0  0  0  0  0  0
   -2.1206   -1.8494   -0.7440 H   0  0  0  0  0  0  0  0  0  0  0  0
   -3.5026   -2.3323    0.2485 H   0  0  0  0  0  0  0  0  0  0  0  0
   -0.0731   -1.3721    0.6410 H   0  0  0  0  0  0  0  0  0  0  0  0
    1.7094   -2.4382   -0.8539 H   0  0  0  0  0  0  0  0  0  0  0  0
    4.1489   -2.5432   -1.2812 H   0  0  0  0  0  0  0  0  0  0  0  0
    4.6466    1.3623    0.4021 H   0  0  0  0  0  0  0  0  0  0  0  0
    2.2183    1.4997    0.8585 H   0  0  0  0  0  0  0  0  0  0  0  0
  1  2  1  0
  2  3  2  0
  3  4  1  0
  4  5  3  0
  3  6  1  0
  6  7  3  0
  2  8  1  0
  8  9  1  0
  1 10  2  0
 10 11  1  0
 11 12  2  0
 12 13  1  0
 13 14  2  0
 14 15  1  0
 14 16  1  0
 16 17  2  0
 17 11  1  0
  1 18  1  0
  8 19  1  0
  8 20  1  0
  9 21  1  0
  9 22  1  0
  9 23  1  0
 10 24  1  0
 12 25  1  0
 13 26  1  0
 16 27  1  0
 17 28  1  0
M  END
