
 OpenBabel09252515483D

 75 87  0  0  1  0  0  0  0  0999 V2000
    0.9165    0.0548    0.0047 H   0  0  0  0  0  0  0  0  0  0  0  0
    1.9865    0.0548    0.0047 C   0  0  0  0  0  3  0  0  0  0  0  0
    2.4006   -1.0802    0.6596 C   0  0  0  0  0  3  0  0  0  0  0  0
    3.4465   -0.9818    0.8626 H   0  0  0  0  0  0  0  0  0  0  0  0
    2.1936   -2.3549   -0.0837 C   0  0  0  0  0  3  0  0  0  0  0  0
    2.6765   -3.1580    0.4329 H   0  0  0  0  0  0  0  0  0  0  0  0
    2.7895   -2.2009   -1.4552 C   0  0  1  0  0  0  0  0  0  0  0  0
    5.4215   -4.5777   -2.2992 C   0  0  1  0  0  0  0  0  0  0  0  0
    7.2233   -4.1007   -2.4510 Si  0  0  0  0  0  0  0  0  0  0  0  0
    7.4152   -2.8069   -3.7875 C   0  0  0  0  0  0  0  0  0  0  0  0
    6.8377   -1.9429   -3.5329 H   0  0  0  0  0  0  0  0  0  0  0  0
    8.4461   -2.5340   -3.8743 H   0  0  0  0  0  0  0  0  0  0  0  0
    7.0715   -3.2036   -4.7199 H   0  0  0  0  0  0  0  0  0  0  0  0
    7.8240   -3.4074   -0.8214 C   0  0  0  0  0  0  0  0  0  0  0  0
    7.7142   -4.1477   -0.0567 H   0  0  0  0  0  0  0  0  0  0  0  0
    8.8549   -3.1345   -0.9083 H   0  0  0  0  0  0  0  0  0  0  0  0
    7.2465   -2.5433   -0.5669 H   0  0  0  0  0  0  0  0  0  0  0  0
    8.2325   -5.6108   -2.8958 C   0  0  0  0  0  0  0  0  0  0  0  0
    8.1228   -6.3511   -2.1311 H   0  0  0  0  0  0  0  0  0  0  0  0
    7.8888   -6.0076   -3.8282 H   0  0  0  0  0  0  0  0  0  0  0  0
    9.2635   -5.3379   -2.9827 H   0  0  0  0  0  0  0  0  0  0  0  0
    4.9626    3.1107    0.2216 C   0  0  1  0  0  0  0  0  0  0  0  0
    4.5942    4.0615   -0.1026 H   0  0  0  0  0  0  0  0  0  0  0  0
    4.3822    2.0156   -0.6584 C   0  0  1  0  0  0  0  0  0  0  0  0
    3.0224    2.1459   -0.5837 C   0  0  1  0  0  0  0  0  0  0  0  0
    2.4432    1.3842    0.5718 C   0  0  0  0  0  3  0  0  0  0  0  0
    1.6137    1.9155    0.9897 H   0  0  0  0  0  0  0  0  0  0  0  0
    4.0669   -2.5508   -1.7021 Zr  0  0  0  0  0  0  0  0  0  0  0  0
    1.8168   -4.1322   -2.0325 Cl  0  0  0  0  0  0  0  0  0  0  0  0
    5.1434   -2.6835   -4.2509 Cl  0  0  0  0  0  0  0  0  0  0  0  0
    4.8203   -2.2323   -2.9134 C   0  0  2  0  0  0  0  0  0  0  0  0
    4.2221   -2.3864   -3.7871 H   0  0  0  0  0  0  0  0  0  0  0  0
    6.0528   -3.1393   -2.9598 C   0  0  2  0  0  0  0  0  0  0  0  0
    7.4475   -3.4201   -4.1733 Si  0  0  0  0  0  0  0  0  0  0  0  0
    6.7889   -4.2974   -5.6878 C   0  0  0  0  0  0  0  0  0  0  0  0
    6.0321   -3.6965   -6.1471 H   0  0  0  0  0  0  0  0  0  0  0  0
    7.5870   -4.4581   -6.3821 H   0  0  0  0  0  0  0  0  0  0  0  0
    6.3709   -5.2396   -5.4006 H   0  0  0  0  0  0  0  0  0  0  0  0
    8.1781   -1.7736   -4.6752 C   0  0  0  0  0  0  0  0  0  0  0  0
    8.5550   -1.2716   -3.8087 H   0  0  0  0  0  0  0  0  0  0  0  0
    8.9762   -1.9343   -5.3696 H   0  0  0  0  0  0  0  0  0  0  0  0
    7.4213   -1.1727   -5.1346 H   0  0  0  0  0  0  0  0  0  0  0  0
    8.7702   -4.4703   -3.3705 C   0  0  0  0  0  0  0  0  0  0  0  0
    9.1471   -3.9683   -2.5040 H   0  0  0  0  0  0  0  0  0  0  0  0
    8.3522   -5.4125   -3.0834 H   0  0  0  0  0  0  0  0  0  0  0  0
    9.5683   -4.6310   -4.0649 H   0  0  0  0  0  0  0  0  0  0  0  0
    6.0588   -3.9217   -1.6366 C   0  0  2  0  0  0  0  0  0  0  0  0
    7.1583   -4.9434   -1.3969 C   0  0  0  0  0  3  0  0  0  0  0  0
    6.8013   -5.9186   -1.6547 H   0  0  0  0  0  0  0  0  0  0  0  0
    8.3640   -4.6014   -2.2569 C   0  0  0  0  0  3  0  0  0  0  0  0
    8.7210   -3.6262   -1.9990 H   0  0  0  0  0  0  0  0  0  0  0  0
    9.4635   -5.6232   -2.0172 C   0  0  0  0  0  3  0  0  0  0  0  0
   10.3123   -5.3824   -2.6226 H   0  0  0  0  0  0  0  0  0  0  0  0
    4.7179   -4.0233    0.5380 C   0  0  0  0  0  3  0  0  0  0  0  0
    5.6341   -4.4861    0.8400 H   0  0  0  0  0  0  0  0  0  0  0  0
    4.9170   -3.3311   -0.8005 C   0  0  2  0  0  0  0  0  0  0  0  0
    5.2510   -0.7793   -2.8538 C   0  0  2  0  0  0  0  0  0  0  0  0
    4.5916    0.0122   -1.9440 Si  0  0  0  0  0  0  0  0  0  0  0  0
    5.0540   -0.6595   -0.2612 C   0  0  0  0  0  0  0  0  0  0  0  0
    4.5462   -0.1014    0.4975 H   0  0  0  0  0  0  0  0  0  0  0  0
    4.7693   -1.6890   -0.1975 H   0  0  0  0  0  0  0  0  0  0  0  0
    6.1112   -0.5725   -0.1206 H   0  0  0  0  0  0  0  0  0  0  0  0
    2.7632   -0.0774   -2.3262 C   0  0  0  0  0  0  0  0  0  0  0  0
    2.5890    0.2766   -3.3208 H   0  0  0  0  0  0  0  0  0  0  0  0
    2.4312   -1.0913   -2.2452 H   0  0  0  0  0  0  0  0  0  0  0  0
    2.2233    0.5314   -1.6313 H   0  0  0  0  0  0  0  0  0  0  0  0
    4.9840    1.4500   -1.9254 Si  0  0  0  0  0  0  0  0  0  0  0  0
    4.3787    2.3548   -3.4458 C   0  0  0  0  0  0  0  0  0  0  0  0
    4.6647    3.3842   -3.3858 H   0  0  0  0  0  0  0  0  0  0  0  0
    4.8125    1.9145   -4.3192 H   0  0  0  0  0  0  0  0  0  0  0  0
    3.3126    2.2836   -3.5025 H   0  0  0  0  0  0  0  0  0  0  0  0
    6.8461    1.6192   -1.8970 C   0  0  0  0  0  0  0  0  0  0  0  0
    7.2344    1.1413   -1.0219 H   0  0  0  0  0  0  0  0  0  0  0  0
    7.2596    1.1570   -2.7690 H   0  0  0  0  0  0  0  0  0  0  0  0
    7.1099    2.6561   -1.8838 H   0  0  0  0  0  0  0  0  0  0  0  0
  1  2  1  0  0  0  0
  2  3  1  0  0  0  0
  2 26  1  0  0  0  0
  3  4  1  0  0  0  0
  3  5  1  0  0  0  0
  5  6  1  0  0  0  0
  7  5  1  1  0  0  0
  7  8  1  0  0  0  0
  7 25  1  0  0  0  0
  7 28  1  0  0  0  0
  8  9  1  1  0  0  0
  8 22  1  0  0  0  0
  8 28  1  0  0  0  0
  9 10  1  0  0  0  0
  9 14  1  0  0  0  0
  9 18  1  0  0  0  0
 10 11  1  0  0  0  0
 10 12  1  0  0  0  0
 10 13  1  0  0  0  0
 14 15  1  0  0  0  0
 14 16  1  0  0  0  0
 14 17  1  0  0  0  0
 18 19  1  0  0  0  0
 18 20  1  0  0  0  0
 18 21  1  0  0  0  0
 22 23  1  1  0  0  0
 22 24  1  0  0  0  0
 22 28  1  0  0  0  0
 24 25  1  0  0  0  0
 24 28  1  0  0  0  0
 24 67  1  1  0  0  0
 25 26  1  1  0  0  0
 25 28  1  0  0  0  0
 26 27  1  0  0  0  0
 28 29  1  0  0  0  0
 28 30  1  0  0  0  0
 28 31  1  0  0  0  0
 28 33  1  0  0  0  0
 28 47  1  0  0  0  0
 28 56  1  0  0  0  0
 28 57  1  0  0  0  0
 31 32  1  6  0  0  0
 31 33  1  0  0  0  0
 31 57  1  0  0  0  0
 33 34  1  6  0  0  0
 33 47  1  0  0  0  0
 34 35  1  0  0  0  0
 34 39  1  0  0  0  0
 34 43  1  0  0  0  0
 35 36  1  0  0  0  0
 35 37  1  0  0  0  0
 35 38  1  0  0  0  0
 39 40  1  0  0  0  0
 39 41  1  0  0  0  0
 39 42  1  0  0  0  0
 43 44  1  0  0  0  0
 43 45  1  0  0  0  0
 43 46  1  0  0  0  0
 47 48  1  6  0  0  0
 47 56  1  0  0  0  0
 48 49  1  0  0  0  0
 48 50  1  0  0  0  0
 50 51  1  0  0  0  0
 50 52  1  0  0  0  0
 52 53  1  0  0  0  0
 52 54  1  0  0  0  0
 54 55  1  0  0  0  0
 56 54  1  1  0  0  0
 56 57  1  0  0  0  0
 57 58  1  6  0  0  0
 58 59  1  0  0  0  0
 58 63  1  0  0  0  0
 58 67  1  0  0  0  0
 59 60  1  0  0  0  0
 59 61  1  0  0  0  0
 59 62  1  0  0  0  0
 63 64  1  0  0  0  0
 63 65  1  0  0  0  0
 63 66  1  0  0  0  0
 67 68  1  0  0  0  0
 67 72  1  0  0  0  0
 68 69  1  0  0  0  0
 68 70  1  0  0  0  0
 68 71  1  0  0  0  0
 72 73  1  0  0  0  0
 72 74  1  0  0  0  0
 72 75  1  0  0  0  0
M  END
$$$$
