
 OpenBabel09252516473D

 29 30  0  0  0  0  0  0  0  0999 V2000
    0.9224   -0.0620    0.0121 Cl  0  0  0  0  0  0  0  0  0  0  0  0
    3.3024   -0.0620    0.0121 Au  0  0  0  0  0  0  0  0  0  0  0  0
    5.1998   -0.0620    0.0121 C   0  0  0  0  0  0  0  0  0  0  0  0
    5.9348   -1.1134   -0.7057 N   0  0  0  0  0  0  0  0  0  0  0  0
    5.5827   -1.5590   -2.0665 C   0  0  0  0  0  0  0  0  0  0  0  0
    5.8882   -3.0298   -2.0007 C   0  0  0  0  0  0  0  0  0  0  0  0
    7.2529   -3.0707   -1.2492 C   0  0  0  0  0  0  0  0  0  0  0  0
    7.1505   -1.8991   -0.2691 C   0  0  0  0  0  0  0  0  0  0  0  0
    5.9348    0.9895    0.7299 N   0  0  0  0  0  0  0  0  0  0  0  0
    5.6636    1.5036    2.0850 C   0  0  0  0  0  0  0  0  0  0  0  0
    5.8779    2.9811    1.9057 C   0  0  0  0  0  0  0  0  0  0  0  0
    7.1760    3.0446    1.0456 C   0  0  0  0  0  0  0  0  0  0  0  0
    7.0660    1.8079    0.1499 C   0  0  0  0  0  0  0  0  0  0  0  0
    6.1107   -1.0423   -2.8405 H   0  0  0  0  0  0  0  0  0  0  0  0
    4.5481   -1.3856   -2.2771 H   0  0  0  0  0  0  0  0  0  0  0  0
    5.1224   -3.5985   -1.5159 H   0  0  0  0  0  0  0  0  0  0  0  0
    5.9764   -3.4485   -2.9814 H   0  0  0  0  0  0  0  0  0  0  0  0
    7.4362   -4.0070   -0.7648 H   0  0  0  0  0  0  0  0  0  0  0  0
    8.0685   -2.9326   -1.9278 H   0  0  0  0  0  0  0  0  0  0  0  0
    7.0643   -2.2344    0.7433 H   0  0  0  0  0  0  0  0  0  0  0  0
    8.0285   -1.2897   -0.3215 H   0  0  0  0  0  0  0  0  0  0  0  0
    6.2785    1.0669    2.8440 H   0  0  0  0  0  0  0  0  0  0  0  0
    4.6600    1.2901    2.3885 H   0  0  0  0  0  0  0  0  0  0  0  0
    5.0456    3.4759    1.4504 H   0  0  0  0  0  0  0  0  0  0  0  0
    6.0172    3.4668    2.8489 H   0  0  0  0  0  0  0  0  0  0  0  0
    7.2673    3.9557    0.4920 H   0  0  0  0  0  0  0  0  0  0  0  0
    8.0481    2.9940    1.6635 H   0  0  0  0  0  0  0  0  0  0  0  0
    6.8829    2.0716   -0.8708 H   0  0  0  0  0  0  0  0  0  0  0  0
    7.9790    1.2502    0.1684 H   0  0  0  0  0  0  0  0  0  0  0  0
  1  2  1  0  0  0  0
  2  3  2  0  0  0  0
  3  4  1  0  0  0  0
  3  9  1  0  0  0  0
  4  5  1  0  0  0  0
  4  8  1  0  0  0  0
  5  6  1  0  0  0  0
  5 14  1  0  0  0  0
  5 15  1  0  0  0  0
  6  7  1  0  0  0  0
  6 16  1  0  0  0  0
  6 17  1  0  0  0  0
  7  8  1  0  0  0  0
  7 18  1  0  0  0  0
  7 19  1  0  0  0  0
  8 20  1  0  0  0  0
  8 21  1  0  0  0  0
  9 10  1  0  0  0  0
  9 13  1  0  0  0  0
 10 11  1  0  0  0  0
 10 22  1  0  0  0  0
 10 23  1  0  0  0  0
 11 12  1  0  0  0  0
 11 24  1  0  0  0  0
 11 25  1  0  0  0  0
 12 13  1  0  0  0  0
 12 26  1  0  0  0  0
 12 27  1  0  0  0  0
 13 28  1  0  0  0  0
 13 29  1  0  0  0  0
M  END
$$$$
