
 OpenBabel09252514493D

 80 95  0  0  0  0  0  0  0  0999 V2000
    1.0399    0.0767   -0.0503 C   0  0  0  0  0  0  0  0  0  0  0  0
    0.5666    0.9890    0.9294 O   0  0  0  0  0  0  0  0  0  0  0  0
    0.9096    0.8055    2.2951 C   0  0  0  0  0  0  0  0  0  0  0  0
   -0.0635    0.9705    3.2669 C   0  0  0  0  0  0  0  0  0  0  0  0
    0.4515    1.0923    4.5791 C   0  0  0  0  0  0  0  0  0  0  0  0
    1.6693    0.7329    4.9420 C   0  0  0  0  0  0  0  0  0  0  0  0
    2.5663    0.5184    3.9326 C   0  0  0  0  0  0  0  0  0  0  0  0
    2.1639    0.5136    2.6189 C   0  0  0  0  0  0  0  0  0  0  0  0
    2.0406    0.5720    6.3553 N   0  0  0  0  0  0  0  0  0  0  0  0
    0.6647    0.9047    7.8103 Cu  0  0  0  0  0  0  0  0  0  0  0  0
   -0.6393    0.1603    7.9700 P   0  0  0  0  0  4  0  0  0  0  0  0
   -1.8588    1.2288    8.8185 C   0  0  0  0  0  0  0  0  0  0  0  0
   -2.4211    0.7457    9.9885 C   0  0  0  0  0  0  0  0  0  0  0  0
   -3.5918    1.4326   10.3882 C   0  0  0  0  0  0  0  0  0  0  0  0
   -3.9472    2.6259    9.9480 C   0  0  0  0  0  0  0  0  0  0  0  0
   -3.3064    3.0763    8.8273 C   0  0  0  0  0  0  0  0  0  0  0  0
   -2.2375    2.3917    8.3012 C   0  0  0  0  0  0  0  0  0  0  0  0
   -1.2864   -0.3024    6.3219 C   0  0  0  0  0  0  0  0  0  0  0  0
   -2.4889    0.2185    5.8734 C   0  0  0  0  0  0  0  0  0  0  0  0
   -2.9657   -0.3819    4.6842 C   0  0  0  0  0  0  0  0  0  0  0  0
   -2.2248   -1.0960    3.8565 C   0  0  0  0  0  0  0  0  0  0  0  0
   -1.0177   -1.5236    4.3357 C   0  0  0  0  0  0  0  0  0  0  0  0
   -0.5427   -1.0840    5.5477 C   0  0  0  0  0  0  0  0  0  0  0  0
   -0.3986   -1.0961    8.7937 C   0  0  0  0  0  0  0  0  0  0  0  0
   -0.5131   -0.9128   10.2512 C   0  0  0  0  0  3  0  0  0  0  0  0
   -0.7753   -1.2983   11.5244 C   0  0  0  0  0  0  0  0  0  0  0  0
    1.4272    1.1386   12.3142 C   0  0  0  0  0  0  0  0  0  0  0  0
   -0.1534   -1.8577   10.4923 C   0  0  0  0  0  0  0  0  0  0  0  0
    0.5790    0.0729   10.7422 Fe  0  0  0  0  0  0  0  0  0  0  0  0
    1.8599   -0.4042   12.5907 C   0  0  0  0  0  0  0  0  0  0  0  0
    2.6300   -0.6622   11.3575 C   0  0  0  0  0  3  0  0  0  0  0  0
    1.8761   -0.3832   10.2788 C   0  0  0  0  0  0  0  0  0  0  0  0
    0.2816    1.4472   10.2520 C   0  0  0  0  0  0  0  0  0  0  0  0
    0.6206    0.0322   12.2503 C   0  0  0  0  0  0  0  0  0  0  0  0
    0.7871    1.9690    8.9167 P   0  0  0  0  0  4  0  0  0  0  0  0
    2.5554    2.4016    9.1028 C   0  0  0  0  0  0  0  0  0  0  0  0
    3.1797    2.1988   10.3226 C   0  0  0  0  0  0  0  0  0  0  0  0
    4.4404    2.8316   10.4335 C   0  0  0  0  0  0  0  0  0  0  0  0
    5.1528    3.2663    9.4101 C   0  0  0  0  0  0  0  0  0  0  0  0
    4.4959    3.3800    8.2164 C   0  0  0  0  0  0  0  0  0  0  0  0
    3.2159    2.9037    8.0660 C   0  0  0  0  0  0  0  0  0  0  0  0
   -0.1973    3.4365    8.4411 C   0  0  0  0  0  0  0  0  0  0  0  0
    0.4768    4.6372    8.2908 C   0  0  0  0  0  0  0  0  0  0  0  0
   -0.3736    5.7642    8.1971 C   0  0  0  0  0  0  0  0  0  0  0  0
   -1.6616    5.7089    7.9110 C   0  0  0  0  0  0  0  0  0  0  0  0
   -2.2549    4.4812    8.0123 C   0  0  0  0  0  0  0  0  0  0  0  0
   -1.5059    3.3505    8.2328 C   0  0  0  0  0  0  0  0  0  0  0  0
    3.4081    0.1703    6.7148 C   0  0  0  0  0  0  0  0  0  0  0  0
    4.2695   -0.0380    5.8039 O   0  0  0  0  0  0  0  0  0  0  0  0
    3.7920    0.0040    8.1761 C   0  0  0  0  0  0  0  0  0  0  0  0
    3.6178    1.1578    8.8143 F   0  0  0  0  0  0  0  0  0  0  0  0
    3.0260   -0.9303    8.7322 F   0  0  0  0  0  0  0  0  0  0  0  0
    5.0681   -0.3610    8.2605 F   0  0  0  0  0  0  0  0  0  0  0  0
    0.6832    0.3723   -1.0148 H   0  0  0  0  0  0  0  0  0  0  0  0
    0.6832   -0.9065    0.1759 H   0  0  0  0  0  0  0  0  0  0  0  0
    2.1099    0.0767   -0.0503 H   0  0  0  0  0  0  0  0  0  0  0  0
   -1.1099    1.0029    3.0453 H   0  0  0  0  0  0  0  0  0  0  0  0
   -0.1904    1.5043    5.3295 H   0  0  0  0  0  0  0  0  0  0  0  0
    3.5964    0.3519    4.1692 H   0  0  0  0  0  0  0  0  0  0  0  0
    2.8676    0.2724    1.8498 H   0  0  0  0  0  0  0  0  0  0  0  0
   -2.0077   -0.0726   10.5401 H   0  0  0  0  0  0  0  0  0  0  0  0
   -4.2339    0.9517   11.0963 H   0  0  0  0  0  0  0  0  0  0  0  0
   -4.6963    3.2089   10.4418 H   0  0  0  0  0  0  0  0  0  0  0  0
   -3.6421    3.9748    8.3531 H   0  0  0  0  0  0  0  0  0  0  0  0
   -1.7055    2.7993    7.4671 H   0  0  0  0  0  0  0  0  0  0  0  0
   -3.0099    1.0037    6.3802 H   0  0  0  0  0  0  0  0  0  0  0  0
   -3.9984   -0.2480    4.4384 H   0  0  0  0  0  0  0  0  0  0  0  0
   -2.5515   -1.3275    2.8642 H   0  0  0  0  0  0  0  0  0  0  0  0
   -0.4346   -2.2105    3.7586 H   0  0  0  0  0  0  0  0  0  0  0  0
    0.4353   -1.3741    5.8707 H   0  0  0  0  0  0  0  0  0  0  0  0
    2.7477    1.6166   11.1095 H   0  0  0  0  0  0  0  0  0  0  0  0
    4.8446    2.9672   11.4149 H   0  0  0  0  0  0  0  0  0  0  0  0
    6.1885    3.5161    9.5097 H   0  0  0  0  0  0  0  0  0  0  0  0
    4.9857    3.8467    7.3874 H   0  0  0  0  0  0  0  0  0  0  0  0
    2.7471    2.9376    7.1048 H   0  0  0  0  0  0  0  0  0  0  0  0
    1.5438    4.7061    8.2494 H   0  0  0  0  0  0  0  0  0  0  0  0
    0.0570    6.7284    8.3700 H   0  0  0  0  0  0  0  0  0  0  0  0
   -2.2114    6.5780    7.6159 H   0  0  0  0  0  0  0  0  0  0  0  0
   -3.3176    4.3997    7.9186 H   0  0  0  0  0  0  0  0  0  0  0  0
   -1.9815    2.3920    8.2368 H   0  0  0  0  0  0  0  0  0  0  0  0
  1  2  1  0  0  0  0
  1 54  1  0  0  0  0
  1 55  1  0  0  0  0
  1 56  1  0  0  0  0
  2  3  1  0  0  0  0
  3  4  1  0  0  0  0
  3  8  2  0  0  0  0
  4  5  2  0  0  0  0
  4 57  1  0  0  0  0
  5  6  1  0  0  0  0
  5 58  1  0  0  0  0
  6  7  2  0  0  0  0
  6  9  1  0  0  0  0
  7  8  1  0  0  0  0
  7 59  1  0  0  0  0
  8 60  1  0  0  0  0
  9 10  1  0  0  0  0
  9 48  1  0  0  0  0
 10 11  1  0  0  0  0
 10 35  1  0  0  0  0
 11 12  1  0  0  0  0
 11 18  1  0  0  0  0
 11 24  1  0  0  0  0
 12 13  1  0  0  0  0
 12 17  2  0  0  0  0
 13 14  2  0  0  0  0
 13 61  1  0  0  0  0
 14 15  1  0  0  0  0
 14 62  1  0  0  0  0
 15 16  2  0  0  0  0
 15 63  1  0  0  0  0
 16 17  1  0  0  0  0
 16 64  1  0  0  0  0
 17 65  1  0  0  0  0
 18 19  1  0  0  0  0
 18 23  2  0  0  0  0
 19 20  2  0  0  0  0
 19 66  1  0  0  0  0
 20 21  1  0  0  0  0
 20 67  1  0  0  0  0
 21 22  2  0  0  0  0
 21 68  1  0  0  0  0
 22 23  1  0  0  0  0
 22 69  1  0  0  0  0
 23 70  1  0  0  0  0
 24 25  1  0  0  0  0
 24 28  2  0  0  0  0
 24 29  1  0  0  0  0
 25 26  1  0  0  0  0
 25 29  1  0  0  0  0
 26 27  2  0  0  0  0
 26 29  1  0  0  0  0
 27 28  1  0  0  0  0
 27 29  1  0  0  0  0
 28 29  1  0  0  0  0
 29 30  1  0  0  0  0
 29 31  1  0  0  0  0
 29 32  1  0  0  0  0
 29 33  1  0  0  0  0
 29 34  1  0  0  0  0
 30 31  1  0  0  0  0
 30 34  2  0  0  0  0
 31 32  1  0  0  0  0
 32 33  2  0  0  0  0
 33 34  1  0  0  0  0
 33 35  1  0  0  0  0
 35 36  1  0  0  0  0
 35 42  1  0  0  0  0
 36 37  1  0  0  0  0
 36 41  2  0  0  0  0
 37 38  2  0  0  0  0
 37 71  1  0  0  0  0
 38 39  1  0  0  0  0
 38 72  1  0  0  0  0
 39 40  2  0  0  0  0
 39 73  1  0  0  0  0
 40 41  1  0  0  0  0
 40 74  1  0  0  0  0
 41 75  1  0  0  0  0
 42 43  1  0  0  0  0
 42 47  2  0  0  0  0
 43 44  2  0  0  0  0
 43 76  1  0  0  0  0
 44 45  1  0  0  0  0
 44 77  1  0  0  0  0
 45 46  2  0  0  0  0
 45 78  1  0  0  0  0
 46 47  1  0  0  0  0
 46 79  1  0  0  0  0
 47 80  1  0  0  0  0
 48 49  2  0  0  0  0
 48 50  1  0  0  0  0
 50 51  1  0  0  0  0
 50 52  1  0  0  0  0
 50 53  1  0  0  0  0
M  END
$$$$
