
 OpenBabel09252517003D

 29 30  0  0  0  0  0  0  0  0999 V2000
    1.0659   -0.0197    0.0726 H   0  0  0  0  0  0  0  0  0  0  0  0
    2.1359   -0.0197    0.0726 C   0  0  0  0  0  0  0  0  0  0  0  0
    2.4102   -0.0701   -0.9604 H   0  0  0  0  0  0  0  0  0  0  0  0
    2.6720    1.1612    0.7742 N   0  0  0  0  0  0  0  0  0  0  0  0
    1.9818    2.4447    0.9672 C   0  0  0  0  0  0  0  0  0  0  0  0
    2.8423    3.8533    1.9029 Au  0  0  0  0  0  0  0  0  0  0  0  0
    3.9216    5.6202    3.0765 Cl  0  0  0  0  0  0  0  0  0  0  0  0
    0.6250    2.6368    0.4353 N   0  0  0  0  0  0  0  0  0  0  0  0
   -0.5699    1.8495    0.7914 C   0  0  0  0  0  0  0  0  0  0  0  0
   -1.1514    2.2796    1.5799 H   0  0  0  0  0  0  0  0  0  0  0  0
   -0.3027    0.8763    1.1469 H   0  0  0  0  0  0  0  0  0  0  0  0
   -1.2941    1.7713   -0.5239 C   0  0  0  0  0  0  0  0  0  0  0  0
   -0.8902    1.0330   -1.1847 H   0  0  0  0  0  0  0  0  0  0  0  0
   -2.3189    1.4976   -0.3831 H   0  0  0  0  0  0  0  0  0  0  0  0
   -1.1729    3.2232   -1.0772 C   0  0  0  0  0  0  0  0  0  0  0  0
   -1.2678    3.2749   -2.1417 H   0  0  0  0  0  0  0  0  0  0  0  0
   -1.9495    3.8479   -0.6878 H   0  0  0  0  0  0  0  0  0  0  0  0
    0.2001    3.6779   -0.5754 C   0  0  0  0  0  0  0  0  0  0  0  0
    0.9058    3.7669   -1.3748 H   0  0  0  0  0  0  0  0  0  0  0  0
    0.1296    4.6406   -0.1137 H   0  0  0  0  0  0  0  0  0  0  0  0
    4.0608    0.8118    1.2589 C   0  0  0  0  0  0  0  0  0  0  0  0
    4.2311    1.1554    2.2578 H   0  0  0  0  0  0  0  0  0  0  0  0
    4.8006    1.2749    0.6399 H   0  0  0  0  0  0  0  0  0  0  0  0
    4.1568   -0.7128    1.1580 C   0  0  0  0  0  0  0  0  0  0  0  0
    4.5812   -1.1642    2.0304 H   0  0  0  0  0  0  0  0  0  0  0  0
    4.7894   -1.0041    0.3458 H   0  0  0  0  0  0  0  0  0  0  0  0
    2.6826   -1.1487    0.9017 C   0  0  0  0  0  0  0  0  0  0  0  0
    2.1298   -1.3169    1.8022 H   0  0  0  0  0  0  0  0  0  0  0  0
    2.6427   -2.0739    0.3657 H   0  0  0  0  0  0  0  0  0  0  0  0
  1  2  1  0  0  0  0
  2  3  1  0  0  0  0
  2  4  1  0  0  0  0
  2 27  1  0  0  0  0
  4  5  1  0  0  0  0
  4 21  1  0  0  0  0
  5  6  2  0  0  0  0
  5  8  1  0  0  0  0
  6  7  1  0  0  0  0
  8  9  1  0  0  0  0
  8 18  1  0  0  0  0
  9 10  1  0  0  0  0
  9 11  1  0  0  0  0
  9 12  1  0  0  0  0
 12 13  1  0  0  0  0
 12 14  1  0  0  0  0
 12 15  1  0  0  0  0
 15 16  1  0  0  0  0
 15 17  1  0  0  0  0
 15 18  1  0  0  0  0
 18 19  1  0  0  0  0
 18 20  1  0  0  0  0
 21 22  1  0  0  0  0
 21 23  1  0  0  0  0
 21 24  1  0  0  0  0
 24 25  1  0  0  0  0
 24 26  1  0  0  0  0
 24 27  1  0  0  0  0
 27 28  1  0  0  0  0
 27 29  1  0  0  0  0
M  END
$$$$
