
 OpenBabel09252517133D

 75 87  0  0  1  0  0  0  0  0999 V2000
    1.0351   -0.0480    0.0804 H   0  0  0  0  0  0  0  0  0  0  0  0
    2.1051   -0.0480    0.0804 C   0  0  0  0  0  3  0  0  0  0  0  0
    2.5191   -1.1830    0.7353 C   0  0  0  0  0  3  0  0  0  0  0  0
    3.5651   -1.0847    0.9383 H   0  0  0  0  0  0  0  0  0  0  0  0
    2.3122   -2.4578   -0.0081 C   0  0  0  0  0  3  0  0  0  0  0  0
    2.7951   -3.2608    0.5085 H   0  0  0  0  0  0  0  0  0  0  0  0
    2.9080   -2.3038   -1.3796 C   0  0  1  0  0  0  0  0  0  0  0  0
    3.7370   -1.8113   -3.9480 C   0  0  1  0  0  0  0  0  0  0  0  0
    5.2761   -2.0100   -4.9913 Si  0  0  0  0  0  0  0  0  0  0  0  0
    6.6751   -1.0288   -4.2316 C   0  0  0  0  0  0  0  0  0  0  0  0
    6.8662   -1.3879   -3.2420 H   0  0  0  0  0  0  0  0  0  0  0  0
    7.5557   -1.1424   -4.8286 H   0  0  0  0  0  0  0  0  0  0  0  0
    6.4037    0.0054   -4.1896 H   0  0  0  0  0  0  0  0  0  0  0  0
    5.7504   -3.8173   -5.0648 C   0  0  0  0  0  0  0  0  0  0  0  0
    4.9500   -4.3787   -5.4995 H   0  0  0  0  0  0  0  0  0  0  0  0
    6.6311   -3.9310   -5.6618 H   0  0  0  0  0  0  0  0  0  0  0  0
    5.9416   -4.1764   -4.0751 H   0  0  0  0  0  0  0  0  0  0  0  0
    4.9420   -1.3824   -6.7209 C   0  0  0  0  0  0  0  0  0  0  0  0
    4.1415   -1.9438   -7.1556 H   0  0  0  0  0  0  0  0  0  0  0  0
    4.6706   -0.3482   -6.6789 H   0  0  0  0  0  0  0  0  0  0  0  0
    5.8227   -1.4961   -7.3179 H   0  0  0  0  0  0  0  0  0  0  0  0
    5.0812    3.0078    0.2972 C   0  0  1  0  0  0  0  0  0  0  0  0
    4.7127    3.9586   -0.0270 H   0  0  0  0  0  0  0  0  0  0  0  0
    4.5008    1.9127   -0.5827 C   0  0  1  0  0  0  0  0  0  0  0  0
    3.1409    2.0430   -0.5081 C   0  0  1  0  0  0  0  0  0  0  0  0
    2.5618    1.2813    0.6475 C   0  0  0  0  0  3  0  0  0  0  0  0
    1.7323    1.8126    1.0654 H   0  0  0  0  0  0  0  0  0  0  0  0
    4.1855   -2.6536   -1.6265 Zr  0  0  0  0  0  0  0  0  0  0  0  0
    6.0948   -4.5864   -2.1664 Cl  0  0  0  0  0  0  0  0  0  0  0  0
    2.9411   -3.8235   -3.8073 Cl  0  0  0  0  0  0  0  0  0  0  0  0
    4.9388   -2.3352   -2.8378 C   0  0  2  0  0  0  0  0  0  0  0  0
    4.3406   -2.4893   -3.7115 H   0  0  0  0  0  0  0  0  0  0  0  0
    6.1713   -3.2422   -2.8842 C   0  0  2  0  0  0  0  0  0  0  0  0
    7.5661   -3.5230   -4.0977 Si  0  0  0  0  0  0  0  0  0  0  0  0
    6.9075   -4.4003   -5.6121 C   0  0  0  0  0  0  0  0  0  0  0  0
    6.1506   -3.7994   -6.0715 H   0  0  0  0  0  0  0  0  0  0  0  0
    7.7056   -4.5610   -6.3065 H   0  0  0  0  0  0  0  0  0  0  0  0
    6.4894   -5.3425   -5.3250 H   0  0  0  0  0  0  0  0  0  0  0  0
    8.2967   -1.8765   -4.5996 C   0  0  0  0  0  0  0  0  0  0  0  0
    8.6736   -1.3745   -3.7330 H   0  0  0  0  0  0  0  0  0  0  0  0
    9.0948   -2.0372   -5.2939 H   0  0  0  0  0  0  0  0  0  0  0  0
    7.5398   -1.2756   -5.0589 H   0  0  0  0  0  0  0  0  0  0  0  0
    8.8888   -4.5732   -3.2949 C   0  0  0  0  0  0  0  0  0  0  0  0
    9.2657   -4.0712   -2.4283 H   0  0  0  0  0  0  0  0  0  0  0  0
    8.4708   -5.5153   -3.0077 H   0  0  0  0  0  0  0  0  0  0  0  0
    9.6869   -4.7339   -3.9893 H   0  0  0  0  0  0  0  0  0  0  0  0
    6.1773   -4.0245   -1.5609 C   0  0  2  0  0  0  0  0  0  0  0  0
    7.2769   -5.0463   -1.3212 C   0  0  0  0  0  3  0  0  0  0  0  0
    6.9199   -6.0215   -1.5791 H   0  0  0  0  0  0  0  0  0  0  0  0
    8.4826   -4.7043   -2.1813 C   0  0  0  0  0  3  0  0  0  0  0  0
    8.8395   -3.7291   -1.9234 H   0  0  0  0  0  0  0  0  0  0  0  0
    9.5821   -5.7261   -1.9416 C   0  0  0  0  0  3  0  0  0  0  0  0
   10.4309   -5.4853   -2.5470 H   0  0  0  0  0  0  0  0  0  0  0  0
    4.8364   -4.1261    0.6136 C   0  0  0  0  0  3  0  0  0  0  0  0
    5.7527   -4.5890    0.9156 H   0  0  0  0  0  0  0  0  0  0  0  0
    5.0356   -3.4340   -0.7249 C   0  0  2  0  0  0  0  0  0  0  0  0
    5.3696   -0.8822   -2.7782 C   0  0  2  0  0  0  0  0  0  0  0  0
    4.7101   -0.0907   -1.8684 Si  0  0  0  0  0  0  0  0  0  0  0  0
    5.1726   -0.7624   -0.1856 C   0  0  0  0  0  0  0  0  0  0  0  0
    4.6648   -0.2043    0.5731 H   0  0  0  0  0  0  0  0  0  0  0  0
    4.8879   -1.7918   -0.1219 H   0  0  0  0  0  0  0  0  0  0  0  0
    6.2297   -0.6754   -0.0450 H   0  0  0  0  0  0  0  0  0  0  0  0
    2.8818   -0.1803   -2.2506 C   0  0  0  0  0  0  0  0  0  0  0  0
    2.7076    0.1737   -3.2452 H   0  0  0  0  0  0  0  0  0  0  0  0
    2.5497   -1.1942   -2.1695 H   0  0  0  0  0  0  0  0  0  0  0  0
    2.3419    0.4285   -1.5557 H   0  0  0  0  0  0  0  0  0  0  0  0
    5.1026    1.3471   -1.8498 Si  0  0  0  0  0  0  0  0  0  0  0  0
    4.4973    2.2520   -3.3702 C   0  0  0  0  0  0  0  0  0  0  0  0
    4.7833    3.2813   -3.3101 H   0  0  0  0  0  0  0  0  0  0  0  0
    4.9310    1.8116   -4.2436 H   0  0  0  0  0  0  0  0  0  0  0  0
    3.4311    2.1807   -3.4268 H   0  0  0  0  0  0  0  0  0  0  0  0
    6.9647    1.5163   -1.8213 C   0  0  0  0  0  0  0  0  0  0  0  0
    7.3529    1.0384   -0.9463 H   0  0  0  0  0  0  0  0  0  0  0  0
    7.3781    1.0541   -2.6933 H   0  0  0  0  0  0  0  0  0  0  0  0
    7.2284    2.5532   -1.8082 H   0  0  0  0  0  0  0  0  0  0  0  0
  1  2  1  0  0  0  0
  2  3  1  0  0  0  0
  2 26  1  0  0  0  0
  3  4  1  0  0  0  0
  3  5  1  0  0  0  0
  5  6  1  0  0  0  0
  7  5  1  1  0  0  0
  7  8  1  0  0  0  0
  7 25  1  0  0  0  0
  7 28  1  0  0  0  0
  8  9  1  6  0  0  0
  8 22  1  0  0  0  0
  8 28  1  0  0  0  0
  9 10  1  0  0  0  0
  9 14  1  0  0  0  0
  9 18  1  0  0  0  0
 10 11  1  0  0  0  0
 10 12  1  0  0  0  0
 10 13  1  0  0  0  0
 14 15  1  0  0  0  0
 14 16  1  0  0  0  0
 14 17  1  0  0  0  0
 18 19  1  0  0  0  0
 18 20  1  0  0  0  0
 18 21  1  0  0  0  0
 22 23  1  1  0  0  0
 22 24  1  0  0  0  0
 22 28  1  0  0  0  0
 24 25  1  0  0  0  0
 24 28  1  0  0  0  0
 24 67  1  1  0  0  0
 25 26  1  1  0  0  0
 25 28  1  0  0  0  0
 26 27  1  0  0  0  0
 28 29  1  0  0  0  0
 28 30  1  0  0  0  0
 28 31  1  0  0  0  0
 28 33  1  0  0  0  0
 28 47  1  0  0  0  0
 28 56  1  0  0  0  0
 28 57  1  0  0  0  0
 31 32  1  6  0  0  0
 31 33  1  0  0  0  0
 31 57  1  0  0  0  0
 33 34  1  6  0  0  0
 33 47  1  0  0  0  0
 34 35  1  0  0  0  0
 34 39  1  0  0  0  0
 34 43  1  0  0  0  0
 35 36  1  0  0  0  0
 35 37  1  0  0  0  0
 35 38  1  0  0  0  0
 39 40  1  0  0  0  0
 39 41  1  0  0  0  0
 39 42  1  0  0  0  0
 43 44  1  0  0  0  0
 43 45  1  0  0  0  0
 43 46  1  0  0  0  0
 47 48  1  6  0  0  0
 47 56  1  0  0  0  0
 48 49  1  0  0  0  0
 48 50  1  0  0  0  0
 50 51  1  0  0  0  0
 50 52  1  0  0  0  0
 52 53  1  0  0  0  0
 52 54  1  0  0  0  0
 54 55  1  0  0  0  0
 56 54  1  1  0  0  0
 56 57  1  0  0  0  0
 57 58  1  6  0  0  0
 58 59  1  0  0  0  0
 58 63  1  0  0  0  0
 58 67  1  0  0  0  0
 59 60  1  0  0  0  0
 59 61  1  0  0  0  0
 59 62  1  0  0  0  0
 63 64  1  0  0  0  0
 63 65  1  0  0  0  0
 63 66  1  0  0  0  0
 67 68  1  0  0  0  0
 67 72  1  0  0  0  0
 68 69  1  0  0  0  0
 68 70  1  0  0  0  0
 68 71  1  0  0  0  0
 72 73  1  0  0  0  0
 72 74  1  0  0  0  0
 72 75  1  0  0  0  0
M  END
$$$$
