
     RDKit          3D

  0  0  0  0  0  0  0  0  0  0999 V3000
M  V30 BEGIN CTAB
M  V30 COUNTS 53 60 0 0 0
M  V30 BEGIN ATOM
M  V30 1 C 2.829242 -4.036936 -1.407385 0
M  V30 2 C 2.089659 -2.918311 -1.035987 0
M  V30 3 N 1.444046 -1.926939 -0.728982 0
M  V30 4 Fe 0.361026 -0.229982 -0.239624 0 CHG=3 VAL=6
M  V30 5 N 1.561860 0.680518 -1.678287 0
M  V30 6 C 2.246357 1.225112 -2.505539 0
M  V30 7 C 3.036780 1.877577 -3.452712 0
M  V30 8 C -1.447234 -1.280159 -0.134995 0 RAD=2 VAL=3
M  V30 9 N -2.062047 -1.492176 1.004598 0
M  V30 10 C -1.965184 -0.721513 2.259915 0
M  V30 11 N -0.541569 -0.921515 2.566169 0
M  V30 12 C 0.045532 -1.363300 3.821579 0
M  V30 13 C 1.340326 -0.992818 3.834736 0
M  V30 14 N 1.582335 -0.320952 2.604007 0
M  V30 15 C 2.503115 0.627343 2.005767 0
M  V30 16 N 1.583759 1.757818 1.752301 0
M  V30 17 C 1.573167 3.154398 1.959954 0
M  V30 18 C 0.403488 3.505068 1.496663 0
M  V30 19 N -0.413865 2.410753 0.969402 0
M  V30 20 C -1.735210 2.751847 0.475219 0
M  V30 21 N -1.793549 1.872009 -0.677930 0
M  V30 22 C -2.325762 2.346529 -1.948776 0
M  V30 23 C -2.446681 1.389893 -2.855645 0
M  V30 24 N -1.980619 0.226608 -2.177662 0
M  V30 25 C -1.919506 -1.212682 -2.480535 0
M  V30 26 N -2.150386 -1.823343 -1.209291 0
M  V30 27 C -2.907842 -2.870243 -0.597498 0
M  V30 28 C -2.859824 -2.678063 0.736617 0
M  V30 29 C -1.480569 0.638478 -0.951399 0 RAD=2 VAL=3
M  V30 30 C 0.382567 1.376882 1.135326 0 RAD=2 VAL=3
M  V30 31 C 0.550754 -0.777197 1.795185 0 RAD=2 VAL=3
M  V30 32 H 2.950242 -4.680712 -0.505492 0
M  V30 33 H 3.834243 -3.816021 -1.842128 0
M  V30 34 H 2.231650 -4.578987 -2.203459 0
M  V30 35 H 2.576383 1.627880 -4.454662 0
M  V30 36 H 4.076998 1.435082 -3.497052 0
M  V30 37 H 3.133822 2.976025 -3.320313 0
M  V30 38 H -2.162812 0.341269 2.128330 0
M  V30 39 H -2.633105 -1.130460 3.000839 0
M  V30 40 H -0.398873 -1.902037 4.661437 0
M  V30 41 H 2.145842 -1.119406 4.579256 0
M  V30 42 H 2.899007 0.252622 1.050795 0
M  V30 43 H 3.272482 0.973965 2.710846 0
M  V30 44 H 2.423191 3.604854 2.403911 0
M  V30 45 H 0.261210 4.606360 1.601497 0
M  V30 46 H -2.548346 2.456943 1.188598 0
M  V30 47 H -1.887695 3.820098 0.234234 0
M  V30 48 H -2.645076 3.353772 -2.290065 0
M  V30 49 H -2.797196 1.396194 -3.869671 0
M  V30 50 H -0.878952 -1.378394 -2.848859 0
M  V30 51 H -2.580409 -1.506939 -3.294773 0
M  V30 52 H -3.403406 -3.645201 -1.205114 0
M  V30 53 H -3.373366 -3.361607 1.436653 0
M  V30 END ATOM
M  V30 BEGIN BOND
M  V30 1 1 1 2
M  V30 2 3 2 3
M  V30 3 9 3 4
M  V30 4 9 5 4
M  V30 5 3 5 6
M  V30 6 1 6 7
M  V30 7 1 4 8
M  V30 8 1 8 9
M  V30 9 1 9 10
M  V30 10 1 10 11
M  V30 11 1 11 12
M  V30 12 2 12 13
M  V30 13 1 13 14
M  V30 14 1 14 15
M  V30 15 1 15 16
M  V30 16 1 16 17
M  V30 17 2 17 18
M  V30 18 1 18 19
M  V30 19 1 19 20
M  V30 20 1 20 21
M  V30 21 1 21 22
M  V30 22 2 22 23
M  V30 23 1 23 24
M  V30 24 1 24 25
M  V30 25 1 25 26
M  V30 26 1 26 27
M  V30 27 2 27 28
M  V30 28 1 24 29
M  V30 29 1 19 30
M  V30 30 1 14 31
M  V30 31 1 29 4
M  V30 32 1 30 4
M  V30 33 1 31 4
M  V30 34 1 26 8
M  V30 35 1 28 9
M  V30 36 1 31 11
M  V30 37 1 30 16
M  V30 38 1 29 21
M  V30 39 1 1 32
M  V30 40 1 1 33
M  V30 41 1 1 34
M  V30 42 1 7 35
M  V30 43 1 7 36
M  V30 44 1 7 37
M  V30 45 1 10 38
M  V30 46 1 10 39
M  V30 47 1 12 40
M  V30 48 1 13 41
M  V30 49 1 15 42
M  V30 50 1 15 43
M  V30 51 1 17 44
M  V30 52 1 18 45
M  V30 53 1 20 46
M  V30 54 1 20 47
M  V30 55 1 22 48
M  V30 56 1 23 49
M  V30 57 1 25 50
M  V30 58 1 25 51
M  V30 59 1 27 52
M  V30 60 1 28 53
M  V30 END BOND
M  V30 END CTAB
M  END
