
     RDKit          3D

 44 43  0  0  0  0  0  0  0  0999 V2000
    2.0700   -0.5069    1.9105 C   0  0  0  0  0  0  0  0  0  0  0  0
    1.4427   -0.6768    0.2629 P   0  0  0  0  0  5  0  0  0  0  0  0
    2.9458    0.0278   -0.5681 C   0  0  0  0  0  0  0  0  0  0  0  0
    1.4853   -2.1252   -0.6774 C   0  0  0  0  0  0  0  0  0  0  0  0
   -0.0165    0.5244   -0.1206 Pt  0  0  0  0  0  6  0  0  0  0  0  0
   -0.2166    1.0435    1.6506 N   0  0  0  0  0  0  0  0  0  0  0  0
   -0.3894    2.2337    1.9259 N   0  0  0  0  0  4  0  0  0  0  0  0
   -0.2074    3.3734    2.3486 N   0  0  0  0  0  2  0  0  0  0  0  0
    0.2935    0.3832   -1.9902 C   0  0  0  0  0  0  0  0  0  0  0  0
    1.2693    1.9492   -0.1238 C   0  0  0  0  0  0  0  0  0  0  0  0
   -1.2350    1.9029   -0.6711 C   0  0  0  0  0  0  0  0  0  0  0  0
   -1.4704   -0.6807   -0.0586 P   0  0  0  0  0  5  0  0  0  0  0  0
   -1.3245   -2.0604    1.0046 C   0  0  0  0  0  0  0  0  0  0  0  0
   -2.6580   -0.6382   -1.3518 C   0  0  0  0  0  0  0  0  0  0  0  0
   -2.5735    0.2010    1.1528 C   0  0  0  0  0  0  0  0  0  0  0  0
    2.5852   -1.4083    2.3456 H   0  0  0  0  0  0  0  0  0  0  0  0
    2.9352    0.2341    2.0367 H   0  0  0  0  0  0  0  0  0  0  0  0
    1.4053   -0.0016    2.6779 H   0  0  0  0  0  0  0  0  0  0  0  0
    0.5789   -1.3817    0.9550 H   0  0  0  0  0  0  0  0  0  0  0  0
    3.2159    0.8903   -0.0061 H   0  0  0  0  0  0  0  0  0  0  0  0
    2.5802    0.1482   -1.5711 H   0  0  0  0  0  0  0  0  0  0  0  0
    3.7619   -0.7100   -0.4101 H   0  0  0  0  0  0  0  0  0  0  0  0
    1.9507   -2.0383   -1.7178 H   0  0  0  0  0  0  0  0  0  0  0  0
    2.2730   -2.8082   -0.2146 H   0  0  0  0  0  0  0  0  0  0  0  0
    0.6814   -2.8045   -0.9358 H   0  0  0  0  0  0  0  0  0  0  0  0
    0.5367   -0.6641   -2.1818 H   0  0  0  0  0  0  0  0  0  0  0  0
   -0.6505    0.6082   -2.5690 H   0  0  0  0  0  0  0  0  0  0  0  0
    0.9866    1.1381   -2.3413 H   0  0  0  0  0  0  0  0  0  0  0  0
    0.7610    2.9617   -0.1238 H   0  0  0  0  0  0  0  0  0  0  0  0
    1.8551    1.9607   -1.0337 H   0  0  0  0  0  0  0  0  0  0  0  0
    1.7861    1.9539    0.8405 H   0  0  0  0  0  0  0  0  0  0  0  0
   -1.4280    2.5764    0.1684 H   0  0  0  0  0  0  0  0  0  0  0  0
   -2.0791    1.5008   -1.2144 H   0  0  0  0  0  0  0  0  0  0  0  0
   -0.7182    2.5760   -1.4292 H   0  0  0  0  0  0  0  0  0  0  0  0
   -0.8299   -1.4675   -0.8896 H   0  0  0  0  0  0  0  0  0  0  0  0
   -0.7128   -2.9415    0.9484 H   0  0  0  0  0  0  0  0  0  0  0  0
   -1.1992   -1.8185    2.1113 H   0  0  0  0  0  0  0  0  0  0  0  0
   -2.3790   -2.4990    1.0350 H   0  0  0  0  0  0  0  0  0  0  0  0
   -3.5330    0.0863   -1.2747 H   0  0  0  0  0  0  0  0  0  0  0  0
   -3.2537   -1.5950   -1.4252 H   0  0  0  0  0  0  0  0  0  0  0  0
   -2.3699   -0.4324   -2.3950 H   0  0  0  0  0  0  0  0  0  0  0  0
   -1.9561    0.2900    2.0345 H   0  0  0  0  0  0  0  0  0  0  0  0
   -3.4595   -0.4441    1.2435 H   0  0  0  0  0  0  0  0  0  0  0  0
   -2.7395    1.1392    0.6421 H   0  0  0  0  0  0  0  0  0  0  0  0
  1  2  1  0
  2  3  1  0
  2  4  1  0
  2  5  1  0
  5  6  1  0
  6  7  2  0
  7  8  2  0
  5  9  1  0
  5 10  1  0
  5 11  1  0
  5 12  1  0
 12 13  1  0
 12 14  1  0
 12 15  1  0
  1 16  1  0
  1 17  1  0
  1 18  1  0
  2 19  1  0
  3 20  1  0
  3 21  1  0
  3 22  1  0
  4 23  1  0
  4 24  1  0
  4 25  1  0
  9 26  1  0
  9 27  1  0
  9 28  1  0
 10 29  1  0
 10 30  1  0
 10 31  1  0
 11 32  1  0
 11 33  1  0
 11 34  1  0
 12 35  1  0
 13 36  1  0
 13 37  1  0
 13 38  1  0
 14 39  1  0
 14 40  1  0
 14 41  1  0
 15 42  1  0
 15 43  1  0
 15 44  1  0
M  CHG  2   7   1   8  -1
M  END
