
 OpenBabel09252514433D

114121  0  0  0  0  0  0  0  0999 V2000
    0.9358   -0.0568   -0.0516 C   0  0  0  0  0  0  0  0  0  0  0  0
    0.4625   -1.3275   -0.4731 O   0  0  0  0  0  0  0  0  0  0  0  0
    0.3343   -2.1608    0.5739 C   0  0  0  0  0  0  0  0  0  0  0  0
    0.3605   -3.5459    0.1127 C   0  0  0  0  0  0  0  0  0  0  0  0
    1.2523   -3.5170   -1.1514 O   0  0  0  0  0  0  0  0  0  0  0  0
    0.7961   -4.4424   -2.1270 C   0  0  0  0  0  0  0  0  0  0  0  0
    1.0751   -2.0676   -1.6294 Eu  0  0  0  0  0  0  0  0  0  0  0  0
    2.9090   -0.5119   -0.4242 N   0  0  0  0  0  0  0  0  0  0  0  0
    2.7393    0.7920   -0.3809 C   0  0  0  0  0  0  0  0  0  0  0  0
    2.5304    2.3976   -0.3276 S   0  0  0  0  0  0  0  0  0  0  0  0
    1.3511   -4.7403   -1.7588 N   0  0  0  0  0  0  0  0  0  0  0  0
    0.8865   -5.5819   -0.6467 C   0  0  0  0  0  0  0  0  0  0  0  0
   -0.3869   -5.5415   -0.3180 C   0  0  0  0  0  0  0  0  0  0  0  0
   -0.8601   -6.4663    0.6066 C   0  0  0  0  0  0  0  0  0  0  0  0
   -0.1174   -7.6605    0.7418 C   0  0  0  0  0  0  0  0  0  0  0  0
    1.2651   -7.5467    0.6065 C   0  0  0  0  0  0  0  0  0  0  0  0
    1.7447   -6.5261   -0.0724 C   0  0  0  0  0  0  0  0  0  0  0  0
    3.2481   -6.3715   -0.2344 C   0  0  0  0  0  0  0  0  0  0  0  0
    3.8949   -6.2448    1.1353 C   0  0  0  0  0  0  0  0  0  0  0  0
    3.8087   -7.5905   -0.9487 C   0  0  0  0  0  0  0  0  0  0  0  0
   -1.3178   -4.5096   -0.9335 C   0  0  0  0  0  0  0  0  0  0  0  0
   -2.4369   -5.2178   -1.6795 C   0  0  0  0  0  0  0  0  0  0  0  0
   -1.9107   -3.6427    0.1653 C   0  0  0  0  0  0  0  0  0  0  0  0
    1.9666   -5.3593   -2.9416 C   0  0  0  0  0  0  0  0  0  0  0  0
    1.4870   -6.3454   -3.6926 C   0  0  0  0  0  0  0  0  0  0  0  0
    3.3842   -0.7227   -1.9378 N   0  0  0  0  0  0  0  0  0  0  0  0
    4.0706   -0.7291   -3.2377 C   0  0  0  0  0  0  0  0  0  0  0  0
    3.4550   -0.2565   -4.3003 C   0  0  0  0  0  0  0  0  0  0  0  0
    4.1322   -0.2664   -5.5149 C   0  0  0  0  0  0  0  0  0  0  0  0
    5.5432   -0.2937   -5.4509 C   0  0  0  0  0  0  0  0  0  0  0  0
    6.1000   -1.0295   -4.4063 C   0  0  0  0  0  0  0  0  0  0  0  0
    5.3708   -1.2378   -3.3305 C   0  0  0  0  0  0  0  0  0  0  0  0
    5.9478   -2.0401   -2.1756 C   0  0  0  0  0  0  0  0  0  0  0  0
    6.3071   -3.4360   -2.6580 C   0  0  0  0  0  0  0  0  0  0  0  0
    7.1956   -1.3483   -1.6516 C   0  0  0  0  0  0  0  0  0  0  0  0
    2.0388    0.2868   -4.2026 C   0  0  0  0  0  0  0  0  0  0  0  0
    2.0253    1.7456   -4.6293 C   0  0  0  0  0  0  0  0  0  0  0  0
    1.1242   -0.5160   -5.1132 C   0  0  0  0  0  0  0  0  0  0  0  0
    2.4948   -6.7716   -4.6710 C   0  0  0  0  0  0  0  0  0  0  0  0
    2.5836   -7.7769   -5.7469 C   0  0  0  0  0  0  0  0  0  0  0  0
    3.7002   -7.8757   -6.4474 C   0  0  0  0  0  0  0  0  0  0  0  0
    4.8727   -7.0103   -6.1919 C   0  0  0  0  0  0  0  0  0  0  0  0
    4.7934   -6.1166   -5.2354 C   0  0  0  0  0  0  0  0  0  0  0  0
    5.8520   -5.1725   -4.8382 C   0  0  0  0  0  0  0  0  0  0  0  0
    5.6041   -4.3354   -3.8475 C   0  0  0  0  0  0  0  0  0  0  0  0
    4.3322   -4.2816   -3.1081 C   0  0  0  0  0  0  0  0  0  0  0  0
    3.3363   -5.0799   -3.4005 C   0  0  0  0  0  0  0  0  0  0  0  0
    3.5454   -6.0388   -4.4857 C   0  0  0  0  0  0  0  0  0  0  0  0
    2.3869   -1.4651   -2.0489 O   0  0  0  0  0  0  0  0  0  0  0  0
    3.4295   -2.4055   -1.8366 C   0  0  0  0  0  0  0  0  0  0  0  0
    2.3335   -1.1416   -3.3525 C   0  0  0  0  0  0  0  0  0  0  0  0
    0.9424   -1.0207   -3.7777 C   0  0  0  0  0  0  0  0  0  0  0  0
    0.1701   -2.0109   -2.8735 O   0  0  0  0  0  0  0  0  0  0  0  0
   -1.1222   -1.5181   -2.5517 C   0  0  0  0  0  0  0  0  0  0  0  0
    0.5792    0.1469    0.9365 H   0  0  0  0  0  0  0  0  0  0  0  0
    0.5792    0.6971   -0.7220 H   0  0  0  0  0  0  0  0  0  0  0  0
    2.0058   -0.0568   -0.0516 H   0  0  0  0  0  0  0  0  0  0  0  0
   -0.5976   -1.9702    1.0638 H   0  0  0  0  0  0  0  0  0  0  0  0
    1.1418   -1.9990    1.2570 H   0  0  0  0  0  0  0  0  0  0  0  0
    0.7339   -4.2159    0.8586 H   0  0  0  0  0  0  0  0  0  0  0  0
   -0.6261   -3.8829   -0.1282 H   0  0  0  0  0  0  0  0  0  0  0  0
   -0.2424   -4.2730   -2.3211 H   0  0  0  0  0  0  0  0  0  0  0  0
    1.3538   -4.3118   -3.0308 H   0  0  0  0  0  0  0  0  0  0  0  0
    0.9331   -5.4397   -1.7642 H   0  0  0  0  0  0  0  0  0  0  0  0
   -1.7410   -6.2829    1.1856 H   0  0  0  0  0  0  0  0  0  0  0  0
   -0.5901   -8.6003    0.9373 H   0  0  0  0  0  0  0  0  0  0  0  0
    1.9203   -8.2710    1.0436 H   0  0  0  0  0  0  0  0  0  0  0  0
    3.4564   -5.4938   -0.8098 H   0  0  0  0  0  0  0  0  0  0  0  0
    3.6866   -7.1225    1.7107 H   0  0  0  0  0  0  0  0  0  0  0  0
    4.9532   -6.1359    1.0212 H   0  0  0  0  0  0  0  0  0  0  0  0
    3.5002   -5.3867    1.6380 H   0  0  0  0  0  0  0  0  0  0  0  0
    3.3534   -7.6797   -1.9128 H   0  0  0  0  0  0  0  0  0  0  0  0
    4.8671   -7.4816   -1.0627 H   0  0  0  0  0  0  0  0  0  0  0  0
    3.6004   -8.4682   -0.3732 H   0  0  0  0  0  0  0  0  0  0  0  0
   -0.7680   -3.8949   -1.6152 H   0  0  0  0  0  0  0  0  0  0  0  0
   -2.9867   -5.8325   -0.9978 H   0  0  0  0  0  0  0  0  0  0  0  0
   -3.0922   -4.4914   -2.1129 H   0  0  0  0  0  0  0  0  0  0  0  0
   -2.0195   -5.8281   -2.4530 H   0  0  0  0  0  0  0  0  0  0  0  0
   -1.1230   -3.1442    0.6904 H   0  0  0  0  0  0  0  0  0  0  0  0
   -2.5660   -2.9163   -0.2681 H   0  0  0  0  0  0  0  0  0  0  0  0
   -2.4606   -4.2574    0.8469 H   0  0  0  0  0  0  0  0  0  0  0  0
    3.6114   -0.2540   -6.4495 H   0  0  0  0  0  0  0  0  0  0  0  0
    6.1509    0.2220   -6.1648 H   0  0  0  0  0  0  0  0  0  0  0  0
    7.0954   -1.4155   -4.4772 H   0  0  0  0  0  0  0  0  0  0  0  0
    5.2226   -2.1093   -1.3919 H   0  0  0  0  0  0  0  0  0  0  0  0
    7.0323   -3.3669   -3.4418 H   0  0  0  0  0  0  0  0  0  0  0  0
    6.7132   -4.0008   -1.8451 H   0  0  0  0  0  0  0  0  0  0  0  0
    5.4286   -3.9230   -3.0269 H   0  0  0  0  0  0  0  0  0  0  0  0
    6.9427   -0.3657   -1.3120 H   0  0  0  0  0  0  0  0  0  0  0  0
    7.6018   -1.9131   -0.8386 H   0  0  0  0  0  0  0  0  0  0  0  0
    7.9208   -1.2792   -2.4353 H   0  0  0  0  0  0  0  0  0  0  0  0
    1.6953    0.2075   -3.1923 H   0  0  0  0  0  0  0  0  0  0  0  0
    2.3688    1.8249   -5.6396 H   0  0  0  0  0  0  0  0  0  0  0  0
    1.0283    2.1281   -4.5605 H   0  0  0  0  0  0  0  0  0  0  0  0
    2.6691    2.3108   -3.9883 H   0  0  0  0  0  0  0  0  0  0  0  0
    1.1337   -1.5429   -4.8128 H   0  0  0  0  0  0  0  0  0  0  0  0
    0.1273   -0.1335   -5.0445 H   0  0  0  0  0  0  0  0  0  0  0  0
    1.4677   -0.4367   -6.1235 H   0  0  0  0  0  0  0  0  0  0  0  0
    1.7538   -8.4187   -5.9577 H   0  0  0  0  0  0  0  0  0  0  0  0
    3.7581   -8.6070   -7.2264 H   0  0  0  0  0  0  0  0  0  0  0  0
    5.7648   -7.1113   -6.7741 H   0  0  0  0  0  0  0  0  0  0  0  0
    6.7973   -5.1652   -5.3395 H   0  0  0  0  0  0  0  0  0  0  0  0
    6.3773   -3.6524   -3.5639 H   0  0  0  0  0  0  0  0  0  0  0  0
    4.2190   -3.5740   -2.3135 H   0  0  0  0  0  0  0  0  0  0  0  0
    3.2393   -3.2855   -2.4149 H   0  0  0  0  0  0  0  0  0  0  0  0
    4.3630   -1.9768   -2.1362 H   0  0  0  0  0  0  0  0  0  0  0  0
    3.4719   -2.6629   -0.7989 H   0  0  0  0  0  0  0  0  0  0  0  0
    2.8117   -1.9083   -3.9256 H   0  0  0  0  0  0  0  0  0  0  0  0
    2.8342   -0.2088   -3.5073 H   0  0  0  0  0  0  0  0  0  0  0  0
    0.8158   -1.2377   -4.8178 H   0  0  0  0  0  0  0  0  0  0  0  0
    0.5884   -0.0215   -3.6321 H   0  0  0  0  0  0  0  0  0  0  0  0
   -1.0299   -0.5864   -2.0337 H   0  0  0  0  0  0  0  0  0  0  0  0
   -1.6825   -1.3720   -3.4515 H   0  0  0  0  0  0  0  0  0  0  0  0
   -1.6280   -2.2247   -1.9273 H   0  0  0  0  0  0  0  0  0  0  0  0
  1  2  1  0  0  0  0
  1 55  1  0  0  0  0
  1 56  1  0  0  0  0
  1 57  1  0  0  0  0
  2  3  1  0  0  0  0
  2  7  1  0  0  0  0
  3  4  1  0  0  0  0
  3 58  1  0  0  0  0
  3 59  1  0  0  0  0
  4  5  1  0  0  0  0
  4 60  1  0  0  0  0
  4 61  1  0  0  0  0
  5  6  1  0  0  0  0
  5  7  1  0  0  0  0
  6 62  1  0  0  0  0
  6 63  1  0  0  0  0
  6 64  1  0  0  0  0
  7  8  1  0  0  0  0
  7 11  1  0  0  0  0
  7 26  1  0  0  0  0
  7 49  1  0  0  0  0
  7 53  1  0  0  0  0
  8  9  2  0  0  0  0
  9 10  2  0  0  0  0
 11 12  1  0  0  0  0
 11 24  1  0  0  0  0
 12 13  1  0  0  0  0
 12 17  2  0  0  0  0
 13 14  2  0  0  0  0
 13 21  1  0  0  0  0
 14 15  1  0  0  0  0
 14 65  1  0  0  0  0
 15 16  2  0  0  0  0
 15 66  1  0  0  0  0
 16 17  1  0  0  0  0
 16 67  1  0  0  0  0
 17 18  1  0  0  0  0
 18 19  1  0  0  0  0
 18 20  1  0  0  0  0
 18 68  1  0  0  0  0
 19 69  1  0  0  0  0
 19 70  1  0  0  0  0
 19 71  1  0  0  0  0
 20 72  1  0  0  0  0
 20 73  1  0  0  0  0
 20 74  1  0  0  0  0
 21 22  1  0  0  0  0
 21 23  1  0  0  0  0
 21 75  1  0  0  0  0
 22 76  1  0  0  0  0
 22 77  1  0  0  0  0
 22 78  1  0  0  0  0
 23 79  1  0  0  0  0
 23 80  1  0  0  0  0
 23 81  1  0  0  0  0
 24 25  2  0  0  0  0
 24 47  1  0  0  0  0
 25 26  1  0  0  0  0
 25 39  1  0  0  0  0
 26 27  1  0  0  0  0
 27 28  1  0  0  0  0
 27 32  2  0  0  0  0
 28 29  2  0  0  0  0
 28 36  1  0  0  0  0
 29 30  1  0  0  0  0
 29 82  1  0  0  0  0
 30 31  2  0  0  0  0
 30 83  1  0  0  0  0
 31 32  1  0  0  0  0
 31 84  1  0  0  0  0
 32 33  1  0  0  0  0
 33 34  1  0  0  0  0
 33 35  1  0  0  0  0
 33 85  1  0  0  0  0
 34 86  1  0  0  0  0
 34 87  1  0  0  0  0
 34 88  1  0  0  0  0
 35 89  1  0  0  0  0
 35 90  1  0  0  0  0
 35 91  1  0  0  0  0
 36 37  1  0  0  0  0
 36 38  1  0  0  0  0
 36 92  1  0  0  0  0
 37 93  1  0  0  0  0
 37 94  1  0  0  0  0
 37 95  1  0  0  0  0
 38 96  1  0  0  0  0
 38 97  1  0  0  0  0
 38 98  1  0  0  0  0
 39 40  1  0  0  0  0
 39 48  2  0  0  0  0
 40 41  2  0  0  0  0
 40 99  1  0  0  0  0
 41 42  1  0  0  0  0
 41100  1  0  0  0  0
 42 43  2  0  0  0  0
 42101  1  0  0  0  0
 43 44  1  0  0  0  0
 43 48  1  0  0  0  0
 44 45  2  0  0  0  0
 44102  1  0  0  0  0
 45 46  1  0  0  0  0
 45103  1  0  0  0  0
 46 47  2  0  0  0  0
 46104  1  0  0  0  0
 47 48  1  0  0  0  0
 49 50  1  0  0  0  0
 49 51  1  0  0  0  0
 50105  1  0  0  0  0
 50106  1  0  0  0  0
 50107  1  0  0  0  0
 51 52  1  0  0  0  0
 51108  1  0  0  0  0
 51109  1  0  0  0  0
 52 53  1  0  0  0  0
 52110  1  0  0  0  0
 52111  1  0  0  0  0
 53 54  1  0  0  0  0
 54112  1  0  0  0  0
 54113  1  0  0  0  0
 54114  1  0  0  0  0
M  END
$$$$
