
  --CCDC--092525    3D                              

 87103  0  0  0  0  0  0  0  0999 V2000
    3.2333   -2.9522   -7.4945 H      0
    3.5773   -2.4016   -6.6548 C      0
    3.3629   -1.0654   -6.5548 C      0
    3.8674   -0.4076   -7.2997 H      0
    3.0836   -0.6509   -5.2442 C      0
    2.2964    0.0492   -5.3675 H      0
    3.6350   -1.1828   -4.0306 C      0
    3.7984   -0.7707   -2.1896 P      3
    5.4802   -1.4101   -1.4500 C      0
    6.1207   -2.5710   -1.9099 C      0
    5.5130   -3.3868   -2.2352 H      0
    7.5061   -2.7423   -2.0428 C      0
    7.9478   -3.5998   -2.5794 H      0
    8.2667   -2.0116   -1.1708 C      0
    9.3286   -1.9316   -1.2366 H      0
    7.5992   -1.4149   -0.1385 C      0
    7.9039   -1.6121    0.9081 H      0
    6.3218   -0.9267   -0.4149 C      0
    6.0452   -0.1352    0.2417 H      0
    3.7595    1.6738   -1.6004 Ru     0
    3.0829    1.0563   -0.1500 H      0
    1.8130   -0.1312   -0.6302 Ru     0
    1.3606    1.9665   -1.8225 Cl     0
   -0.0608    0.1553   -0.2259 C      0
    0.0241    1.4618   -0.9265 C      0
   -0.2701    1.0756   -1.8746 H      0
    1.0530    1.6027   -0.7160 H      0
   -0.6829    2.0771   -0.3697 H      0
    0.9339    0.0461    1.0693 C      0
    1.6640    1.3156    1.7476 C      0
    2.1185    1.8768    0.9959 H      0
    2.3175    1.1295    2.5597 H      0
    0.8853    2.0191    2.2435 H      0
    2.1550   -1.2247    1.0061 C      0
    3.5864   -0.5665    1.2817 C      0
    4.1713   -0.2861    0.4586 H      0
    4.2109   -1.1748    1.9218 H      0
    3.8243    0.3430    1.8098 H      0
    2.2357   -2.1354   -0.4110 C      0
    3.4894   -2.1427   -1.1747 C      0
    3.5371   -2.8466   -2.0116 H      0
    3.9878   -2.5159   -0.4131 H      0
    3.9698   -1.0992   -1.4033 H      0
    1.0609   -1.9140   -1.4700 C      0
    1.1946   -1.8447   -3.0874 C      0
    0.5085   -2.2874   -3.6796 H      0
    2.0091   -2.4467   -3.2519 H      0
    1.3764   -1.0643   -3.8120 H      0
    0.0346   -1.2716   -0.6537 C      0
    0.6004   -2.7242   -0.3742 C      0
    1.2912   -3.2109   -1.1378 H      0
   -0.3044   -3.2682   -0.6105 H      0
    0.7838   -2.9621    0.5964 H      0
    4.0059    2.4300   -3.3903 C      0
    3.2893    2.0483   -4.6194 C      0
    2.4591    1.4568   -4.2343 H      0
    4.0424    1.4848   -5.1857 H      0
    2.9307    2.9335   -5.1190 H      0
    3.6721    3.5437   -2.2469 C      0
    4.3207    3.7142   -0.8237 C      0
    3.8339    2.9791   -0.0712 H      0
    3.6710    4.5880   -0.5699 H      0
    5.2649    4.2673   -0.9650 H      0
    4.1029    3.4829   -0.8706 C      0
    5.3929    2.5520   -0.3999 C      0
    6.3374    2.9624   -0.8102 H      0
    4.9522    1.5006   -0.2921 H      0
    5.6320    2.6615    0.6960 H      0
    5.1766    2.4530   -0.4541 C      0
    5.8944    1.7295   -1.6577 C      0
    5.0870    0.9659   -1.7884 H      0
    6.7778    1.1492   -1.2766 H      0
    6.2835    2.5125   -2.3195 H      0
    5.7856    1.7266   -1.6548 C      0
    5.2002    2.1783   -3.0648 C      0
    5.9825    1.7550   -3.6672 H      0
    5.1473    3.2720   -3.2125 H      0
    4.3253    1.4876   -3.1703 H      0
    5.1788    1.3274   -2.9752 C      0
    5.8311    0.1501   -3.7306 C      0
    5.3028    0.2658   -4.6351 H      0
    5.6363   -0.7702   -3.1944 H      0
    6.9207    0.2133   -3.8915 H      0
    4.2462   -2.3652   -4.4127 C      0
    4.5901   -2.9970   -3.6698 H      0
    4.3360   -2.9533   -5.6674 C      0
    5.2539   -3.4857   -5.9793 H      0
  1  2  1
  2  3  4
  3  4  1
  3  5  4
  5  6  1
  5  7  4
  7  8  1
  8  9  1
  9 10  4
 10 11  1
 10 12  4
 12 13  1
 12 14  4
 14 15  1
 14 16  4
 16 17  1
 16 18  4
  9 18  4
 18 19  1
  8 20  1
 20 21  1
 21 22  1
  8 22  1
 20 22  1
 22 23  1
 20 23  1
 22 24  1
 24 25  1
 25 26  1
 25 27  1
 25 28  1
 24 29  4
 22 29  1
 29 30  1
 30 31  1
 30 32  1
 30 33  1
 29 34  4
 22 34  1
 34 35  1
 35 36  1
 35 37  1
 35 38  1
 34 39  4
 22 39  1
 39 40  1
 40 41  1
 40 42  1
 40 43  1
 39 44  4
 22 44  1
 44 45  1
 45 46  1
 45 47  1
 45 48  1
 44 49  4
 24 49  4
 22 49  1
 49 50  1
 50 51  1
 50 52  1
 50 53  1
 20 54  1
 54 55  1
 55 56  1
 55 57  1
 55 58  1
 54 59  4
 20 59  1
 59 60  1
 60 61  1
 60 62  1
 60 63  1
 59 64  4
 20 64  1
 64 65  1
 65 66  1
 65 67  1
 65 68  1
 64 69  4
 20 69  1
 69 70  1
 70 71  1
 70 72  1
 70 73  1
 69 74  4
 20 74  1
 74 75  1
 75 76  1
 75 77  1
 75 78  1
 74 79  4
 54 79  4
 20 79  1
 79 80  1
 80 81  1
 80 82  1
 80 83  1
  7 84  4
 84 85  1
 84 86  4
  2 86  4
 86 87  1
M  CHG  1   8   1
M  END
$$$$
