
  --CCDC--092525    3D                              

 64 65  0  0  0  0  0  0  0  0999 V2000
    0.2128    0.7339   -0.7838 H      0
    0.8554    1.3790   -0.1865 C      0
    1.4214    0.7738    0.5200 H      0
   -0.0083    2.3447    0.5847 C      0
   -1.2090    2.6938    0.1760 N      0
   -1.6856    3.6150    1.0419 N      0
   -2.9804    4.0392    1.0273 O      0
   -2.9055    3.8535   -0.4045 C      0
   -3.3991    2.9806   -0.8151 H      0
   -3.2201    4.6856   -1.0021 H      0
   -1.9074    3.7315   -0.7933 H      0
   -3.1938    4.3061    2.4281 C      0
   -2.5860    3.6884    3.0843 H      0
   -4.1889    4.1218    2.8014 H      0
   -3.0200    5.3069    2.7589 H      0
   -3.1586    2.6634    1.4495 C      0
   -3.4783    1.9833    0.6660 H      0
   -2.2677    2.2023    1.8638 H      0
   -3.8103    2.4714    2.2891 H      0
   -2.4059    5.6213    0.8794 P      0
   -1.1411    6.2815    2.0235 C      0
   -1.2176    5.8936    3.0370 H      0
   -1.2281    7.3635    2.0867 H      0
   -0.1340    6.0894    1.6577 H      0
   -0.9962    5.6979   -0.2745 C      0
   -0.1931    5.0057   -0.0313 H      0
   -0.5649    6.6960   -0.2352 H      0
   -1.2907    5.5353   -1.3094 H      0
   -3.4823    7.0194    1.3434 C      0
   -4.3074    7.1704    0.6599 H      0
   -2.9025    7.9376    1.2835 H      0
   -3.8646    6.9736    2.3595 H      0
   -4.6345    4.2168    0.7198 P      0
   -5.1110    5.1777   -0.7544 C      0
   -6.1627    5.4448   -0.6754 H      0
   -5.0242    4.5830   -1.6630 H      0
   -4.5639    6.0983   -0.9061 H      0
   -5.6911    2.8940    1.4044 C      0
   -5.4319    1.9055    1.0283 H      0
   -6.7226    3.0658    1.1041 H      0
   -5.6835    2.8750    2.4924 H      0
   -5.7040    5.3513    1.6696 C      0
   -6.6519    4.8670    1.8915 H      0
   -5.2884    5.6832    2.6173 H      0
   -5.9498    6.2339    1.0860 H      0
   -0.7777    3.8497    2.0063 N      0
    0.2669    3.0889    1.7613 C      0
    1.5238    3.1491    2.6145 C      0
    1.7909    2.1309    2.8937 H      0
    1.2955    3.7233    3.5113 H      0
    2.7309    3.7853    1.9426 C      0
    3.5155    3.8602    2.6940 H      0
    2.4342    4.7843    1.6266 H      0
    3.3280    3.0968    0.7417 C      0
    3.3701    2.0279    0.9460 H      0
    4.3374    3.4784    0.5954 H      0
    2.5366    3.3093   -0.5629 C      0
    3.2333    3.6614   -1.3223 H      0
    1.7853    4.0752   -0.3765 H      0
    1.8300    2.0911   -1.1117 C      0
    1.2748    2.4041   -1.9947 H      0
    2.5943    1.3708   -1.4000 H      0
   -2.7938    6.2581   -0.3013 H      0
   -5.0553    3.3394   -0.2853 H      0
  1  2  1
  2  3  1
  2  4  1
  4  5  2
  5  6  1
  6  7  1
  7  8  1
  8  9  1
  8 10  1
  8 11  1
  7 12  1
 12 13  1
 12 14  1
 12 15  1
  7 16  1
 16 17  1
 16 18  1
 16 19  1
  7 20  1
 20 21  1
 21 22  1
 21 23  1
 21 24  1
 20 25  1
 25 26  1
 25 27  1
 25 28  1
 20 29  1
 29 30  1
 29 31  1
 29 32  1
  7 33  1
 33 34  1
 34 35  1
 34 36  1
 34 37  1
 33 38  1
 38 39  1
 38 40  1
 38 41  1
 33 42  1
 42 43  1
 42 44  1
 42 45  1
  6 46  1
 46 47  2
  4 47  1
 47 48  1
 48 49  1
 48 50  1
 48 51  1
 51 52  1
 51 53  1
 51 54  1
 54 55  1
 54 56  1
 54 57  1
 57 58  1
 57 59  1
 57 60  1
  2 60  1
 60 61  1
 60 62  1
 20 63  1
 33 64  1
M  END
$$$$
