
  --CCDC--092525    3D                              

 73 75  0  0  0  0  0  0  0  0999 V2000
   -0.3675    0.3284   -1.1062 H      0
    0.2774    1.1579   -0.8379 C      0
    1.0695    1.7569   -1.7886 C      0
    1.0609    1.3886   -2.8091 H      0
    1.8775    2.8288   -1.4483 C      0
    2.5120    3.2628   -2.2100 H      0
    1.8956    3.3517   -0.1560 C      0
    2.7445    4.5871    0.1235 C      0
    3.4739    5.3402   -0.4614 C      0
    4.0365    5.6551   -1.8093 C      0
    3.4905    5.0736   -2.9505 C      0
    2.6667    4.3740   -2.8513 H      0
    3.9835    5.3743   -4.2087 C      0
    3.5362    4.9238   -5.0890 H      0
    5.0400    6.2466   -4.3445 C      0
    5.4259    6.4828   -5.3306 H      0
    5.6036    6.8185   -3.2247 C      0
    6.4328    7.5094   -3.3326 H      0
    5.1142    6.5212   -1.9633 C      0
    5.5665    6.9781   -1.0892 H      0
    3.3312    5.9835    1.3433 Co     3
    4.8801    5.7442    2.4750 N      0
    5.7972    5.6025    3.1450 C      0
    6.9426    5.4128    4.0257 C      0
    7.8221    5.1254    3.4543 H      0
    6.7457    4.6340    4.7593 H      0
    7.1758    6.3297    4.5628 H      0
    1.4412    7.3428    1.2406 P      0
    1.2868    7.4286   -0.5645 C      0
    0.6407    6.6272   -0.9160 H      0
    0.8307    8.3704   -0.8627 H      0
    2.2223    7.3237   -1.0962 H      0
    1.6073    9.0632    1.7871 C      0
    1.4001    9.1298    2.8528 H      0
    0.8963    9.7035    1.2695 H      0
    2.5988    9.4728    1.6424 H      0
    0.2641    7.0241    2.5738 C      0
   -0.4833    7.8151    2.5898 H      0
    0.7233    6.9959    3.5549 H      0
   -0.2829    6.1058    2.3926 H      0
    4.6344    7.8911    1.1155 P      0
    4.5054    8.5586    2.7937 C      0
    5.0781    7.9633    3.4969 H      0
    3.4851    8.6131    3.1502 H      0
    4.9226    9.5631    2.8265 H      0
    6.4333    8.0977    1.1331 C      0
    6.8588    7.7948    2.0865 H      0
    6.6997    9.1396    0.9688 H      0
    6.9017    7.5016    0.3532 H      0
    4.1023    8.8963   -0.2985 C      0
    3.8207    8.2852   -1.1478 H      0
    4.9208    9.5370   -0.6190 H      0
    3.2587    9.5405   -0.0838 H      0
    2.7050    5.0900    3.4008 P      0
    1.0144    4.6109    3.8407 C      0
    0.3690    4.4762    2.9843 H      0
    0.5570    5.3710    4.4694 H      0
    1.0222    3.6806    4.4046 H      0
    3.4142    3.4603    3.0341 C      0
    3.8438    3.4353    2.0404 H      0
    4.1925    3.1546    3.7265 H      0
    2.6365    2.7014    3.0734 H      0
    2.9826    6.5288    4.4633 C      0
    2.4836    7.4163    4.0899 H      0
    2.6076    6.3347    5.4656 H      0
    4.0388    6.7537    4.5591 H      0
    1.1272    2.6885    0.7939 C      0
    1.1800    2.9969    1.8227 H      0
    0.3201    1.6146    0.4583 C      0
   -0.2771    1.1277    1.2219 H      0
    0.2440    6.7464    0.8262 H      0
    5.3357    6.7411    0.7333 H      0
    3.6794    4.7878    4.3598 H      0
  1  2  1
  2  3  4
  3  4  1
  3  5  4
  5  6  1
  5  7  4
  7  8  1
  8  9  3
  9 10  1
 10 11  4
 11 12  1
 11 13  4
 13 14  1
 13 15  4
 15 16  1
 15 17  4
 17 18  1
 17 19  4
 10 19  4
 19 20  1
  9 21  1
  8 21  1
 21 22  1
 22 23  3
 23 24  1
 24 25  1
 24 26  1
 24 27  1
 21 28  1
 28 29  1
 29 30  1
 29 31  1
 29 32  1
 28 33  1
 33 34  1
 33 35  1
 33 36  1
 28 37  1
 37 38  1
 37 39  1
 37 40  1
 21 41  1
 41 42  1
 42 43  1
 42 44  1
 42 45  1
 41 46  1
 46 47  1
 46 48  1
 46 49  1
 41 50  1
 50 51  1
 50 52  1
 50 53  1
 21 54  1
 54 55  1
 55 56  1
 55 57  1
 55 58  1
 54 59  1
 59 60  1
 59 61  1
 59 62  1
 54 63  1
 63 64  1
 63 65  1
 63 66  1
  7 67  4
 67 68  1
 67 69  4
  2 69  4
 69 70  1
 28 71  1
 41 72  1
 54 73  1
M  CHG  1  21   1
M  END
$$$$
