
     RDKit          3D

 29 30  0  0  0  0  0  0  0  0999 V2000
   -2.4221    0.4386   -1.0097 C   0  0  0  0  0  0  0  0  0  0  0  0
   -1.3298    0.4533   -0.0321 N   0  0  0  0  0  0  0  0  0  0  0  0
   -0.0191    0.9940   -0.1513 C   0  0  0  0  0  0  0  0  0  0  0  0
    0.3376    2.7779   -0.6275 Au  0  0  0  0  0  3  0  0  0  0  0  0
    0.1642    4.4683   -1.0893 Cl  0  0  0  0  0  0  0  0  0  0  0  0
    1.1095    0.1561    0.0993 N   0  0  0  0  0  0  0  0  0  0  0  0
    1.9308   -0.3358    1.2144 C   0  0  0  0  0  0  0  0  0  0  0  0
    3.2879    0.1948    0.7440 C   0  0  0  0  0  0  0  0  0  0  0  0
    3.2949   -0.3593   -0.6795 C   0  0  0  0  0  0  0  0  0  0  0  0
    1.8101   -0.5227   -1.0010 C   0  0  0  0  0  0  0  0  0  0  0  0
   -1.7953   -0.2093    1.1730 C   0  0  0  0  0  0  0  0  0  0  0  0
   -3.1322   -0.8193    0.8069 C   0  0  0  0  0  0  0  0  0  0  0  0
   -3.0066   -0.9399   -0.6982 C   0  0  0  0  0  0  0  0  0  0  0  0
   -3.2075    1.1673   -0.7255 H   0  0  0  0  0  0  0  0  0  0  0  0
   -2.0550    0.5369   -2.0335 H   0  0  0  0  0  0  0  0  0  0  0  0
    1.6110    0.0723    2.1710 H   0  0  0  0  0  0  0  0  0  0  0  0
    1.9607   -1.4483    1.1543 H   0  0  0  0  0  0  0  0  0  0  0  0
    4.1193   -0.1643    1.3518 H   0  0  0  0  0  0  0  0  0  0  0  0
    3.1869    1.2955    0.6940 H   0  0  0  0  0  0  0  0  0  0  0  0
    3.7389    0.3922   -1.3523 H   0  0  0  0  0  0  0  0  0  0  0  0
    3.7789   -1.3490   -0.7229 H   0  0  0  0  0  0  0  0  0  0  0  0
    1.5249   -1.5892   -1.0184 H   0  0  0  0  0  0  0  0  0  0  0  0
    1.5765   -0.0883   -1.9817 H   0  0  0  0  0  0  0  0  0  0  0  0
   -1.1073   -1.0219    1.4983 H   0  0  0  0  0  0  0  0  0  0  0  0
   -1.9183    0.5611    1.9689 H   0  0  0  0  0  0  0  0  0  0  0  0
   -3.3193   -1.7872    1.3011 H   0  0  0  0  0  0  0  0  0  0  0  0
   -3.9124   -0.0631    1.0536 H   0  0  0  0  0  0  0  0  0  0  0  0
   -2.2564   -1.7359   -0.8801 H   0  0  0  0  0  0  0  0  0  0  0  0
   -3.9506   -1.0746   -1.2275 H   0  0  0  0  0  0  0  0  0  0  0  0
  1  2  1  0
  2  3  1  0
  3  4  2  3
  4  5  1  0
  3  6  1  0
  6  7  1  0
  7  8  1  0
  8  9  1  0
  9 10  1  0
  2 11  1  0
 11 12  1  0
 12 13  1  0
 13  1  1  0
 10  6  1  0
  1 14  1  0
  1 15  1  0
  7 16  1  0
  7 17  1  0
  8 18  1  0
  8 19  1  0
  9 20  1  0
  9 21  1  0
 10 22  1  0
 10 23  1  0
 11 24  1  0
 11 25  1  0
 12 26  1  0
 12 27  1  0
 13 28  1  0
 13 29  1  0
M  END
