
  --CCDC--092525    3D                              

109117  0  0  0  0  0  0  0  0999 V2000
    0.4498    2.4340   -1.4303 C      0
    1.7694    1.9055   -1.1163 C      0
    2.7968    1.4533   -0.9103 N      0
    4.7838    0.5853   -0.5305 Fe     2
    3.8433   -1.0091   -1.7246 N      0
    3.3556   -1.8358   -2.3437 C      0
    2.7163   -2.8763   -3.1373 C      0
    5.8635    2.4410   -1.0387 N      0
    6.9548    2.4027   -1.7840 C      0
    6.8488    1.5416   -2.9869 C      0
    6.6183   -0.0645   -2.2069 P      0
    6.0942   -1.1611   -3.5475 C      0
    5.3002   -0.6425   -4.5649 C      0
    4.8458   -1.4499   -5.5903 C      0
    5.1574   -2.7982   -5.6328 C      0
    4.6698   -3.6719   -6.7619 C      0
    5.9121   -3.3212   -4.5946 C      0
    6.3628   -2.5261   -3.5553 C      0
    8.1929   -0.6224   -1.5139 C      0
    8.3184   -1.8757   -0.9316 C      0
    9.5387   -2.3034   -0.4399 C      0
   10.6672   -1.5037   -0.5169 C      0
   11.9980   -1.9932   -0.0001 C      0
   10.5381   -0.2566   -1.1085 C      0
    9.3181    0.1903   -1.5853 C      0
    5.5363    3.4723   -0.1205 C      0
    5.9019    2.8390    1.2401 C      0
    5.1995    1.6033    1.3899 N      0
    4.7258    1.1771    2.5543 C      0
    3.8958   -0.0604    2.5943 C      0
    4.5945   -1.1539    1.3451 P      0
    3.3387   -2.4396    1.1078 C      0
    2.1408   -2.1287    0.4754 C      0
    1.1254   -3.0615    0.3728 C      0
    1.2459   -4.3248    0.9264 C      0
    0.1255   -5.3316    0.8055 C      0
    2.4239   -4.6194    1.5969 C      0
    3.4503   -3.6947    1.6990 C      0
    6.1591   -1.8789    1.9070 C      0
    6.5790   -3.1123    1.4215 C      0
    7.7866   -3.6582    1.8200 C      0
    8.6271   -2.9907    2.6962 C      0
    9.9459   -3.5897    3.1215 C      0
    8.2215   -1.7482    3.1545 C      0
    7.0165   -1.1929    2.7623 C      0
    7.3961    2.6549    1.4008 C      0
    8.2328    3.7402    1.6088 C      0
    9.6040    3.5671    1.6939 C      0
   10.1502    2.3055    1.5944 C      0
    9.3279    1.2170    1.4013 C      0
    7.9576    1.3902    1.3071 C      0
    4.1278    4.0271   -0.2275 C      0
    3.6006    4.3281   -1.4751 C      0
    2.3481    4.9053   -1.5969 C      0
    1.6033    5.1859   -0.4725 C      0
    2.1009    4.8678    0.7720 C      0
    3.3531    4.2898    0.8965 C      0
    0.5131    3.1846   -2.2137 H      0
    0.0009    2.8939   -0.5534 H      0
   -0.2100    1.6409   -1.7732 H      0
    1.7492   -3.1420   -2.7137 H      0
    3.3311   -3.7743   -3.1627 H      0
    2.5605   -2.5427   -4.1590 H      0
    7.8551    2.9542   -1.5339 H      0
    5.9893    1.8337   -3.6004 H      0
    7.7441    1.5712   -3.6196 H      0
    5.0320    0.4083   -4.5570 H      0
    4.2343   -1.0184   -6.3759 H      0
    3.6977   -3.3361   -7.1169 H      0
    4.5738   -4.7053   -6.4357 H      0
    5.3645   -3.6432   -7.5988 H      0
    6.1552   -4.3785   -4.5967 H      0
    6.9331   -2.9763   -2.7520 H      0
    7.4573   -2.5338   -0.8935 H      0
    9.6181   -3.2906    0.0039 H      0
   12.0172   -3.0804    0.0365 H      0
   12.1900   -1.6174    1.0030 H      0
   12.8066   -1.6617   -0.6479 H      0
   11.4113    0.3801   -1.2058 H      0
    9.2421    1.1743   -2.0367 H      0
    6.2294    4.3115   -0.2886 H      0
    5.5671    3.5253    2.0325 H      0
    4.8912    1.7568    3.4566 H      0
    3.8972   -0.5282    3.5865 H      0
    2.8530    0.1826    2.3563 H      0
    2.0025   -1.1397    0.0510 H      0
    0.2124   -2.7947   -0.1492 H      0
    0.3826   -6.2654    1.3005 H      0
   -0.0846   -5.5495   -0.2395 H      0
   -0.7868   -4.9492    1.2583 H      0
    2.5431   -5.5939    2.0604 H      0
    4.3399   -3.9538    2.2612 H      0
    5.9494   -3.6573    0.7262 H      0
    8.0825   -4.6292    1.4361 H      0
   10.3220   -4.2715    2.3622 H      0
    9.8316   -4.1453    4.0493 H      0
   10.6927   -2.8147    3.2805 H      0
    8.8611   -1.1981    3.8381 H      0
    6.7467   -0.2127    3.1355 H      0
    7.8084    4.7336    1.7004 H      0
   10.2500    4.4266    1.8390 H      0
   11.2244    2.1691    1.6673 H      0
    9.7551    0.2230    1.3191 H      0
    7.3162    0.5283    1.1549 H      0
    4.1833    4.1208   -2.3660 H      0
    1.9546    5.1425   -2.5796 H      0
    0.6261    5.6490   -0.5666 H      0
    1.5110    5.0762    1.6588 H      0
    3.7269    4.0572    1.8876 H      0
  1  2  1
  2  3  3
  3  4  1
  4  5  1
  5  6  3
  6  7  1
  4  8  1
  8  9  2
  9 10  1
 10 11  1
  4 11  1
 11 12  1
 12 13  4
 13 14  4
 14 15  4
 15 16  1
 15 17  4
 17 18  4
 12 18  4
 11 19  1
 19 20  4
 20 21  4
 21 22  4
 22 23  1
 22 24  4
 24 25  4
 19 25  4
  8 26  1
 26 27  1
 27 28  1
  4 28  1
 28 29  2
 29 30  1
 30 31  1
  4 31  1
 31 32  1
 32 33  4
 33 34  4
 34 35  4
 35 36  1
 35 37  4
 37 38  4
 32 38  4
 31 39  1
 39 40  4
 40 41  4
 41 42  4
 42 43  1
 42 44  4
 44 45  4
 39 45  4
 27 46  1
 46 47  4
 47 48  4
 48 49  4
 49 50  4
 50 51  4
 46 51  4
 26 52  1
 52 53  4
 53 54  4
 54 55  4
 55 56  4
 56 57  4
 52 57  4
  1 58  1
  1 59  1
  1 60  1
  7 61  1
  7 62  1
  7 63  1
  9 64  1
 10 65  1
 10 66  1
 13 67  1
 14 68  1
 16 69  1
 16 70  1
 16 71  1
 17 72  1
 18 73  1
 20 74  1
 21 75  1
 23 76  1
 23 77  1
 23 78  1
 24 79  1
 25 80  1
 26 81  1
 27 82  1
 29 83  1
 30 84  1
 30 85  1
 33 86  1
 34 87  1
 36 88  1
 36 89  1
 36 90  1
 37 91  1
 38 92  1
 40 93  1
 41 94  1
 43 95  1
 43 96  1
 43 97  1
 44 98  1
 45 99  1
 47100  1
 48101  1
 49102  1
 50103  1
 51104  1
 53105  1
 54106  1
 55107  1
 56108  1
 57109  1
M  CHG  1   4   2
M  END
$$$$
