
 OpenBabel09252516433D

 46 54  0  0  0  0  0  0  0  0999 V2000
    1.0744   -0.0581    0.0329 Cl  0  0  0  0  0  0  0  0  0  0  0  0
    3.5044   -0.0581    0.0329 Ir  0  0  0  0  0  0  0  0  0  0  0  0
    3.4560    1.3521    0.0926 C   0  0  0  0  0  0  0  0  0  0  0  0
    2.6403    1.9888    0.9685 C   0  0  0  0  0  0  0  0  0  0  0  0
    1.8126    1.2723    1.8604 C   0  0  0  0  0  0  0  0  0  0  0  0
    0.9760    1.9430    2.7632 C   0  0  0  0  0  0  0  0  0  0  0  0
    0.1727    1.2356    3.6317 C   0  0  0  0  0  0  0  0  0  0  0  0
    0.1667   -0.1536    3.6397 C   0  0  0  0  0  0  0  0  0  0  0  0
    0.9989   -0.8641    2.7414 C   0  0  0  0  0  0  0  0  0  0  0  0
    1.0240   -2.2637    2.7144 C   0  0  0  0  0  0  0  0  0  0  0  0
    1.8462   -2.9250    1.8255 C   0  0  0  0  0  0  0  0  0  0  0  0
    2.6588   -2.2279    0.9471 C   0  0  0  0  0  0  0  0  0  0  0  0
    2.6569   -0.8361    0.9491 C   0  0  0  0  0  0  0  0  0  0  0  0
    1.8232   -0.1419    1.8504 C   0  0  0  0  0  0  0  0  0  0  0  0
    2.5167   -0.8295    1.8045 C   0  0  0  0  0  0  0  0  0  0  0  0
    4.0347   -0.7697    1.7533 C   0  0  0  0  0  0  0  0  0  0  0  0
    3.0195   -1.6994    2.6953 C   0  0  0  0  0  0  0  0  0  0  0  0
    4.1938   -1.0549    3.4136 C   0  0  0  0  0  0  0  0  0  0  0  0
    2.0882   -2.0475    3.5980 C   0  0  0  0  0  0  0  0  0  0  0  0
    2.2907   -3.0189    4.7495 C   0  0  0  0  0  0  0  0  0  0  0  0
    0.9659   -1.4057    3.3197 C   0  0  0  0  0  0  0  0  0  0  0  0
   -0.3480   -1.4864    4.0796 C   0  0  0  0  0  0  0  0  0  0  0  0
    1.2530   -0.5895    2.1116 C   0  0  0  0  0  0  0  0  0  0  0  0
    0.2914    0.3321    1.3791 C   0  0  0  0  0  0  0  0  0  0  0  0
    4.0736    1.9278   -0.5647 H   0  0  0  0  0  0  0  0  0  0  0  0
    0.9609    3.0128    2.7784 H   0  0  0  0  0  0  0  0  0  0  0  0
   -0.4585    1.7668    4.3130 H   0  0  0  0  0  0  0  0  0  0  0  0
   -0.4642   -0.6843    4.3217 H   0  0  0  0  0  0  0  0  0  0  0  0
    0.4041   -2.8218    3.3846 H   0  0  0  0  0  0  0  0  0  0  0  0
    1.8563   -3.9949    1.8147 H   0  0  0  0  0  0  0  0  0  0  0  0
    3.2891   -2.7601    0.2657 H   0  0  0  0  0  0  0  0  0  0  0  0
    4.3878   -1.3654    0.9376 H   0  0  0  0  0  0  0  0  0  0  0  0
    4.3473    0.2443    1.6160 H   0  0  0  0  0  0  0  0  0  0  0  0
    4.4375   -1.1461    2.6704 H   0  0  0  0  0  0  0  0  0  0  0  0
    3.8575   -0.1844    3.9371 H   0  0  0  0  0  0  0  0  0  0  0  0
    4.6113   -1.7512    4.1106 H   0  0  0  0  0  0  0  0  0  0  0  0
    4.9393   -0.7753    2.6987 H   0  0  0  0  0  0  0  0  0  0  0  0
    2.5660   -3.9778    4.3630 H   0  0  0  0  0  0  0  0  0  0  0  0
    3.0673   -2.6560    5.3899 H   0  0  0  0  0  0  0  0  0  0  0  0
    1.3811   -3.1065    5.3063 H   0  0  0  0  0  0  0  0  0  0  0  0
   -0.7026   -2.4959    4.0728 H   0  0  0  0  0  0  0  0  0  0  0  0
   -0.1958   -1.1686    5.0900 H   0  0  0  0  0  0  0  0  0  0  0  0
   -1.0706   -0.8514    3.6111 H   0  0  0  0  0  0  0  0  0  0  0  0
   -0.5471   -0.2328    1.0290 H   0  0  0  0  0  0  0  0  0  0  0  0
   -0.0474    1.0971    2.0462 H   0  0  0  0  0  0  0  0  0  0  0  0
    0.7919    0.7809    0.5466 H   0  0  0  0  0  0  0  0  0  0  0  0
  1  2  1  0  0  0  0
  2  3  1  0  0  0  0
  2  4  1  0  0  0  0
  2 13  1  0  0  0  0
  2 15  1  0  0  0  0
  2 17  1  0  0  0  0
  2 19  1  0  0  0  0
  2 21  1  0  0  0  0
  2 23  1  0  0  0  0
  3  4  2  0  0  0  0
  3 25  1  0  0  0  0
  4  5  1  0  0  0  0
  5  6  1  0  0  0  0
  5 14  2  0  0  0  0
  6  7  2  0  0  0  0
  6 26  1  0  0  0  0
  7  8  1  0  0  0  0
  7 27  1  0  0  0  0
  8  9  2  0  0  0  0
  8 28  1  0  0  0  0
  9 10  1  0  0  0  0
  9 14  1  0  0  0  0
 10 11  2  0  0  0  0
 10 29  1  0  0  0  0
 11 12  1  0  0  0  0
 11 30  1  0  0  0  0
 12 13  2  0  0  0  0
 12 31  1  0  0  0  0
 13 14  1  0  0  0  0
 15 16  1  0  0  0  0
 15 17  1  0  0  0  0
 15 23  2  0  0  0  0
 16 32  1  0  0  0  0
 16 33  1  0  0  0  0
 16 34  1  0  0  0  0
 17 18  1  0  0  0  0
 17 19  1  0  0  0  0
 18 35  1  0  0  0  0
 18 36  1  0  0  0  0
 18 37  1  0  0  0  0
 19 20  1  0  0  0  0
 19 21  2  0  0  0  0
 20 38  1  0  0  0  0
 20 39  1  0  0  0  0
 20 40  1  0  0  0  0
 21 22  1  0  0  0  0
 21 23  1  0  0  0  0
 22 41  1  0  0  0  0
 22 42  1  0  0  0  0
 22 43  1  0  0  0  0
 23 24  1  0  0  0  0
 24 44  1  0  0  0  0
 24 45  1  0  0  0  0
 24 46  1  0  0  0  0
M  END
$$$$
