
     RDKit          3D

 35 38  0  0  0  0  0  0  0  0999 V2000
    3.3272    1.7439   -1.2000 C   0  0  0  0  0  0  0  0  0  0  0  0
    1.9439    1.5961   -1.0493 C   0  0  0  0  0  0  0  0  0  0  0  0
    1.4004    0.6542   -0.1604 C   0  0  0  0  0  0  0  0  0  0  0  0
   -0.0266    0.4832   -0.0131 N   0  0  0  0  0  0  0  0  0  0  0  0
   -0.5712   -0.0182    1.1672 C   0  0  0  0  0  0  0  0  0  0  0  0
    0.0261   -0.1549    2.2330 O   0  0  0  0  0  0  0  0  0  0  0  0
   -1.9962   -0.5096    1.0715 C   0  0  2  0  0  0  0  0  0  0  0  0
   -2.0812   -1.8099    0.2358 C   0  0  0  0  0  0  0  0  0  0  0  0
   -3.1622   -1.4307   -0.7875 C   0  0  2  0  0  0  0  0  0  0  0  0
   -3.8944   -2.9763   -1.6336 Br  0  0  0  0  0  0  0  0  0  0  0  0
   -2.5289   -0.5310   -1.7232 O   0  0  0  0  0  0  0  0  0  0  0  0
   -2.3807    0.7231   -1.0195 C   0  0  2  0  0  0  0  0  0  0  0  0
   -3.2445    1.9890   -1.9423 Cl  0  0  0  0  0  0  0  0  0  0  0  0
   -0.9055    1.1623   -0.9711 C   0  0  0  0  0  0  0  0  0  0  0  0
   -2.9943    0.4280    0.3557 C   0  0  1  0  0  0  0  0  0  0  0  0
   -4.1047   -0.5912    0.0659 C   0  0  1  0  0  0  0  0  0  0  0  0
   -5.9066    0.0962   -0.7348 I   0  0  0  0  0  0  0  0  0  0  0  0
    2.3031   -0.1539    0.5506 C   0  0  0  0  0  0  0  0  0  0  0  0
    3.6979   -0.0239    0.4037 C   0  0  0  0  0  0  0  0  0  0  0  0
    4.6297   -0.8972    1.2072 C   0  0  0  0  0  0  0  0  0  0  0  0
    4.1513   -2.1589    1.3944 F   0  0  0  0  0  0  0  0  0  0  0  0
    5.8520   -1.0513    0.6230 F   0  0  0  0  0  0  0  0  0  0  0  0
    4.8721   -0.3968    2.4493 F   0  0  0  0  0  0  0  0  0  0  0  0
    4.2009    0.9424   -0.4730 C   0  0  0  0  0  0  0  0  0  0  0  0
    3.7203    2.4919   -1.8851 H   0  0  0  0  0  0  0  0  0  0  0  0
    1.3174    2.2638   -1.6332 H   0  0  0  0  0  0  0  0  0  0  0  0
   -2.3510   -0.7053    2.0927 H   0  0  0  0  0  0  0  0  0  0  0  0
   -1.1318   -2.0772   -0.2420 H   0  0  0  0  0  0  0  0  0  0  0  0
   -2.3884   -2.6431    0.8793 H   0  0  0  0  0  0  0  0  0  0  0  0
   -0.4847    1.0162   -1.9740 H   0  0  0  0  0  0  0  0  0  0  0  0
   -0.8558    2.2264   -0.7038 H   0  0  0  0  0  0  0  0  0  0  0  0
   -3.2632    1.3075    0.9456 H   0  0  0  0  0  0  0  0  0  0  0  0
   -4.3881   -1.1358    0.9784 H   0  0  0  0  0  0  0  0  0  0  0  0
    1.9420   -0.9289    1.2252 H   0  0  0  0  0  0  0  0  0  0  0  0
    5.2755    1.0701   -0.5959 H   0  0  0  0  0  0  0  0  0  0  0  0
  1  2  2  0
  2  3  1  0
  3  4  1  0
  4  5  1  0
  5  6  2  0
  5  7  1  0
  7  8  1  0
  8  9  1  0
  9 10  1  6
  9 11  1  0
 11 12  1  0
 12 13  1  6
 12 14  1  0
 12 15  1  0
 15 16  1  0
 16 17  1  0
  3 18  2  0
 18 19  1  0
 19 20  1  0
 20 21  1  0
 20 22  1  0
 20 23  1  0
 19 24  2  0
 24  1  1  0
 14  4  1  0
 15  7  1  0
 16  9  1  0
  1 25  1  0
  2 26  1  0
  7 27  1  1
  8 28  1  0
  8 29  1  0
 14 30  1  0
 14 31  1  0
 15 32  1  1
 16 33  1  1
 18 34  1  0
 24 35  1  0
M  END
