
 OpenBabel09252519563D

 35 38  0  0  1  0  0  0  0  0999 V2000
    2.9668    0.1444    1.0358 H   0  0  0  0  0  0  0  0  0  0  0  0
    2.9373   -0.0913   -0.0224 C   0  0  0  0  0  3  0  0  0  0  0  0
    2.3565   -1.3562   -0.4572 C   0  0  0  0  0  3  0  0  0  0  0  0
    2.2375   -2.1343    0.2844 H   0  0  0  0  0  0  0  0  0  0  0  0
    1.7483   -1.4485   -1.7976 C   0  0  0  0  0  3  0  0  0  0  0  0
    0.3819   -1.7563   -1.8478 N   0  0  0  0  0  0  0  0  0  0  0  0
   -0.5160   -0.6694   -2.1571 C   0  0  0  0  0  0  0  0  0  0  0  0
   -0.4230    0.1690   -3.0385 O   0  0  0  0  0  0  0  0  0  0  0  0
   -1.5074   -0.5737   -1.0383 C   0  0  2  0  0  0  0  0  0  0  0  0
   -0.6125   -0.7334   -0.4007 H   0  0  0  0  0  0  0  0  0  0  0  0
   -1.9029    0.2590    0.1626 C   0  0  0  0  0  0  0  0  0  0  0  0
   -2.6346    1.0365   -0.0831 H   0  0  0  0  0  0  0  0  0  0  0  0
   -1.0585    0.7516    0.6680 H   0  0  0  0  0  0  0  0  0  0  0  0
   -2.4936   -0.9373    0.9833 C   0  0  2  0  0  0  0  0  0  0  0  0
   -3.0929   -0.3486    2.6930 Br  0  0  0  0  0  0  0  0  0  0  0  0
   -1.4780   -2.0363    1.0658 O   0  0  0  0  0  0  0  0  0  0  0  0
   -1.5064   -2.7569   -0.2214 C   0  0  2  0  0  0  0  0  0  0  0  0
   -2.0813   -4.4149    0.0796 Cl  0  0  0  0  0  0  0  0  0  0  0  0
   -0.1375   -2.9137   -1.0184 C   0  0  0  0  0  0  0  0  0  0  0  0
   -0.2848   -3.6881   -1.7855 H   0  0  0  0  0  0  0  0  0  0  0  0
    0.6346   -3.2918   -0.3444 H   0  0  0  0  0  0  0  0  0  0  0  0
   -2.4306   -1.8408   -0.9956 C   0  0  1  0  0  0  0  0  0  0  0  0
   -2.7601   -2.2040   -1.9720 H   0  0  0  0  0  0  0  0  0  0  0  0
   -3.5274   -1.3949   -0.0313 C   0  0  1  0  0  0  0  0  0  0  0  0
   -4.0702   -0.5380   -0.4548 H   0  0  0  0  0  0  0  0  0  0  0  0
   -5.0347   -2.7187    0.5236 I   0  0  0  0  0  0  0  0  0  0  0  0
    2.2999   -0.5507   -2.8171 C   0  0  0  0  0  3  0  0  0  0  0  0
    2.0654   -0.7351   -3.8603 H   0  0  0  0  0  0  0  0  0  0  0  0
    2.9283    0.7105   -2.4183 C   0  0  0  0  0  3  0  0  0  0  0  0
    3.1620    1.7981   -3.4149 C   0  0  0  0  0  0  0  0  0  0  0  0
    4.4840    2.0963   -3.5187 F   0  0  0  0  0  0  0  0  0  0  0  0
    2.7385    1.4822   -4.6654 F   0  0  0  0  0  0  0  0  0  0  0  0
    2.5333    2.9506   -3.0642 F   0  0  0  0  0  0  0  0  0  0  0  0
    3.2089    0.9505   -1.0003 C   0  0  0  0  0  3  0  0  0  0  0  0
    3.4048    1.9614   -0.6565 H   0  0  0  0  0  0  0  0  0  0  0  0
  1  2  1  0  0  0  0
  2  3  1  0  0  0  0
  2 34  1  0  0  0  0
  3  4  1  0  0  0  0
  3  5  1  0  0  0  0
  5 27  1  0  0  0  0
  5  6  1  0  0  0  0
  6  7  1  0  0  0  0
  6 19  1  0  0  0  0
  7  9  1  0  0  0  0
  7  8  2  0  0  0  0
  9 11  1  0  0  0  0
  9 22  1  0  0  0  0
  9 10  1  6  0  0  0
 11 14  1  0  0  0  0
 11 12  1  0  0  0  0
 11 13  1  0  0  0  0
 14 16  1  0  0  0  0
 14 24  1  0  0  0  0
 14 15  1  1  0  0  0
 16 17  1  0  0  0  0
 17 19  1  0  0  0  0
 17 22  1  0  0  0  0
 17 18  1  1  0  0  0
 19 20  1  0  0  0  0
 19 21  1  0  0  0  0
 22 24  1  0  0  0  0
 22 23  1  6  0  0  0
 24 26  1  0  0  0  0
 24 25  1  6  0  0  0
 27 28  1  0  0  0  0
 27 29  1  0  0  0  0
 29 30  1  0  0  0  0
 29 34  1  0  0  0  0
 30 31  1  0  0  0  0
 30 32  1  0  0  0  0
 30 33  1  0  0  0  0
 34 35  1  0  0  0  0
M  END
$$$$
