
  --CCDC--092525    3D                              

 62 63  0  0  0  0  0  0  0  0999 V2000
   -0.0614    0.3385    0.0764 C      0
    1.8269    0.0438   -0.6469 Pt     0
    3.6852   -0.2709   -1.4282 C      0
    1.5446   -1.9745   -0.5574 C      0
    1.1034    0.0821   -2.5551 N      0
    1.8574   -0.2820   -3.6281 N      0
    1.0340   -0.1640   -4.6508 C      0
    1.5194   -0.4267   -6.0408 C      0
    1.9235    0.8401   -6.7802 C      0
    1.0243    2.0445   -6.6142 C      0
   -0.4531    1.8349   -6.9982 C      0
   -1.4051    1.8530   -5.8299 C      0
   -1.4822    0.6263   -4.9340 C      0
   -0.2214    0.2737   -4.1859 C      0
   -0.1731    0.4258   -2.8781 N      0
    2.7821   -0.0448    1.5734 P      0
    3.2566   -1.7537    1.9287 C      0
    1.6282    0.4769    2.8660 C      0
    4.2724    0.9725    1.7181 C      0
    2.1606    2.4298   -0.7528 P      0
    1.1288    3.1171   -2.0701 C      0
    3.8854    2.8232   -1.1327 C      0
    1.6837    3.2143    0.8061 C      0
   -0.6258    0.9610   -0.6134 H      0
   -0.5606   -0.6220    0.1855 H      0
   -0.0299    0.8418    1.0369 H      0
    3.7322   -1.2708   -1.8546 H      0
    3.8806    0.4635   -2.2068 H      0
    4.4344   -0.1784   -0.6473 H      0
    1.1040   -2.2375    0.4020 H      0
    2.5021   -2.4792   -0.6679 H      0
    0.8774   -2.2832   -1.3594 H      0
    0.7226   -0.9152   -6.5997 H      0
    2.3832   -1.0876   -5.9873 H      0
    1.9632    0.6028   -7.8423 H      0
    2.9170    1.1207   -6.4337 H      0
    1.4208    2.8460   -7.2357 H      0
    1.0584    2.3456   -5.5682 H      0
   -0.5427    0.8707   -7.4964 H      0
   -0.7425    2.6275   -7.6866 H      0
   -2.4033    2.0201   -6.2319 H      0
   -1.1225    2.6942   -5.1986 H      0
   -1.7487   -0.2256   -5.5578 H      0
   -2.2679    0.7987   -4.2000 H      0
    2.3877   -2.4081    1.9106 H      0
    3.7173   -1.8291    2.9114 H      0
    3.9698   -2.1164    1.1914 H      0
    0.8497   -0.2693    3.0106 H      0
    1.1489    1.4175    2.6042 H      0
    2.1462    0.6131    3.8131 H      0
    5.1037    0.5382    1.1685 H      0
    4.5736    1.0575    2.7601 H      0
    4.1029    1.9759    1.3355 H      0
    0.0763    2.9170   -1.8807 H      0
    1.2616    4.1946   -2.1411 H      0
    1.3892    2.6797   -3.0317 H      0
    4.5630    2.1051   -0.6779 H      0
    4.1437    3.8126   -0.7610 H      0
    4.0540    2.8122   -2.2075 H      0
    0.6252    3.0608    1.0055 H      0
    1.8688    4.2857    0.7696 H      0
    2.2467    2.8036    1.6403 H      0
  1  2  1
  2  3  1
  2  4  1
  2  5  1
  5  6  1
  6  7  2
  7  8  1
  8  9  1
  9 10  1
 10 11  1
 11 12  1
 12 13  1
 13 14  1
  7 14  1
 14 15  2
  5 15  1
  2 16  1
 16 17  1
 16 18  1
 16 19  1
  2 20  1
 20 21  1
 20 22  1
 20 23  1
  1 24  1
  1 25  1
  1 26  1
  3 27  1
  3 28  1
  3 29  1
  4 30  1
  4 31  1
  4 32  1
  8 33  1
  8 34  1
  9 35  1
  9 36  1
 10 37  1
 10 38  1
 11 39  1
 11 40  1
 12 41  1
 12 42  1
 13 43  1
 13 44  1
 17 45  1
 17 46  1
 17 47  1
 18 48  1
 18 49  1
 18 50  1
 19 51  1
 19 52  1
 19 53  1
 21 54  1
 21 55  1
 21 56  1
 22 57  1
 22 58  1
 22 59  1
 23 60  1
 23 61  1
 23 62  1
M  END
$$$$
