
     RDKit          3D

 55 59  0  0  0  0  0  0  0  0999 V2000
    4.0277    3.3693    1.9489 C   0  0  0  0  0  0  0  0  0  0  0  0
    3.2048    2.4467    2.5913 C   0  0  0  0  0  0  0  0  0  0  0  0
    2.4221    1.5690    1.8545 C   0  0  0  0  0  0  0  0  0  0  0  0
    2.4426    1.5917    0.4637 C   0  0  0  0  0  0  0  0  0  0  0  0
    1.4133    0.4375   -0.4681 P   0  0  0  0  0  5  0  0  0  0  0  0
    2.4541   -1.0113   -0.7150 C   0  0  0  0  0  0  0  0  0  0  0  0
    2.6919   -1.7382    0.4494 C   0  0  0  0  0  0  0  0  0  0  0  0
    3.4846   -2.8616    0.3231 C   0  0  0  0  0  0  0  0  0  0  0  0
    4.0260   -3.2663   -0.8813 C   0  0  0  0  0  0  0  0  0  0  0  0
    3.7723   -2.5189   -2.0363 C   0  0  0  0  0  0  0  0  0  0  0  0
    2.9822   -1.3922   -1.9318 C   0  0  0  0  0  0  0  0  0  0  0  0
    0.9699    1.1393   -2.1628 S   0  0  0  0  0  4  0  0  0  0  0  0
   -0.3563    0.2969   -3.0336 Cu  0  0  0  0  0  3  0  0  0  0  0  0
   -0.6601   -0.0426   -4.9767 I   0  0  0  0  0  0  0  0  0  0  0  0
   -1.0019   -1.4365   -1.8961 S   0  0  0  0  0  4  0  0  0  0  0  0
   -1.4535   -0.4793   -0.3267 P   0  0  0  0  0  5  0  0  0  0  0  0
   -2.5470    0.8592   -0.7923 C   0  0  0  0  0  0  0  0  0  0  0  0
   -3.2313    1.0206   -1.9861 C   0  0  0  0  0  0  0  0  0  0  0  0
   -4.0294    2.1290   -2.1506 C   0  0  0  0  0  0  0  0  0  0  0  0
   -4.1624    3.0788   -1.1570 C   0  0  0  0  0  0  0  0  0  0  0  0
   -3.4817    2.9200    0.0330 C   0  0  0  0  0  0  0  0  0  0  0  0
   -2.6697    1.7999    0.2103 C   0  0  0  0  0  0  0  0  0  0  0  0
   -2.3855   -1.5394    0.7605 C   0  0  0  0  0  0  0  0  0  0  0  0
   -2.3818   -1.3486    2.1359 C   0  0  0  0  0  0  0  0  0  0  0  0
   -3.1065   -2.1727    2.9825 C   0  0  0  0  0  0  0  0  0  0  0  0
   -3.8535   -3.2140    2.4352 C   0  0  0  0  0  0  0  0  0  0  0  0
   -3.8423   -3.3843    1.0683 C   0  0  0  0  0  0  0  0  0  0  0  0
   -3.1309   -2.5791    0.2089 C   0  0  0  0  0  0  0  0  0  0  0  0
   -0.0136    0.0964    0.5652 C   0  0  0  0  0  0  0  0  0  0  0  0
    3.2560    2.5037   -0.1716 C   0  0  0  0  0  0  0  0  0  0  0  0
    4.0329    3.3749    0.5791 C   0  0  0  0  0  0  0  0  0  0  0  0
    4.6065    4.0184    2.5591 H   0  0  0  0  0  0  0  0  0  0  0  0
    3.0936    2.3222    3.6480 H   0  0  0  0  0  0  0  0  0  0  0  0
    1.7648    0.8320    2.3056 H   0  0  0  0  0  0  0  0  0  0  0  0
    2.3092   -1.4939    1.4292 H   0  0  0  0  0  0  0  0  0  0  0  0
    3.7199   -3.4887    1.1908 H   0  0  0  0  0  0  0  0  0  0  0  0
    4.6444   -4.1504   -0.9559 H   0  0  0  0  0  0  0  0  0  0  0  0
    4.1824   -2.8122   -2.9892 H   0  0  0  0  0  0  0  0  0  0  0  0
    2.7434   -0.7656   -2.7826 H   0  0  0  0  0  0  0  0  0  0  0  0
    0.9816    2.5254   -2.1905 H   0  0  0  0  0  0  0  0  0  0  0  0
    0.1759   -2.1269   -1.8275 H   0  0  0  0  0  0  0  0  0  0  0  0
   -3.0533    0.2187   -2.6897 H   0  0  0  0  0  0  0  0  0  0  0  0
   -4.5351    2.2038   -3.0924 H   0  0  0  0  0  0  0  0  0  0  0  0
   -4.8068    3.9424   -1.3316 H   0  0  0  0  0  0  0  0  0  0  0  0
   -3.6322    3.7087    0.7755 H   0  0  0  0  0  0  0  0  0  0  0  0
   -2.1886    1.7859    1.1823 H   0  0  0  0  0  0  0  0  0  0  0  0
   -1.7871   -0.5218    2.5559 H   0  0  0  0  0  0  0  0  0  0  0  0
   -3.0476   -1.9538    4.0373 H   0  0  0  0  0  0  0  0  0  0  0  0
   -4.4062   -3.8363    3.1265 H   0  0  0  0  0  0  0  0  0  0  0  0
   -4.4457   -4.2152    0.7016 H   0  0  0  0  0  0  0  0  0  0  0  0
   -3.1574   -2.7577   -0.8581 H   0  0  0  0  0  0  0  0  0  0  0  0
   -0.2723    1.0020    1.1670 H   0  0  0  0  0  0  0  0  0  0  0  0
    0.2932   -0.6976    1.2946 H   0  0  0  0  0  0  0  0  0  0  0  0
    3.2686    2.5177   -1.2591 H   0  0  0  0  0  0  0  0  0  0  0  0
    4.6754    4.0952    0.0791 H   0  0  0  0  0  0  0  0  0  0  0  0
  1  2  2  0
  2  3  1  0
  3  4  2  0
  4  5  1  0
  5  6  1  0
  6  7  2  0
  7  8  1  0
  8  9  2  0
  9 10  1  0
 10 11  2  0
  5 12  2  0
 12 13  1  0
 13 14  1  0
 13 15  1  0
 15 16  2  0
 16 17  1  0
 17 18  2  0
 18 19  1  0
 19 20  2  0
 20 21  1  0
 21 22  2  0
 16 23  1  0
 23 24  2  0
 24 25  1  0
 25 26  2  0
 26 27  1  0
 27 28  2  0
 16 29  1  0
  4 30  1  0
 30 31  2  0
 31  1  1  0
 29  5  1  0
 11  6  1  0
 22 17  1  0
 28 23  1  0
  1 32  1  0
  2 33  1  0
  3 34  1  0
  7 35  1  0
  8 36  1  0
  9 37  1  0
 10 38  1  0
 11 39  1  0
 12 40  1  0
 15 41  1  0
 18 42  1  0
 19 43  1  0
 20 44  1  0
 21 45  1  0
 22 46  1  0
 24 47  1  0
 25 48  1  0
 26 49  1  0
 27 50  1  0
 28 51  1  0
 29 52  1  0
 29 53  1  0
 30 54  1  0
 31 55  1  0
M  END
