
 OpenBabel09252516123D

 55 59  0  0  0  0  0  0  0  0999 V2000
    1.0524    0.0593   -0.0611 H   0  0  0  0  0  0  0  0  0  0  0  0
    2.1224    0.0593   -0.0611 C   0  0  0  0  0  3  0  0  0  0  0  0
    2.6347   -1.3237   -0.4703 C   0  0  0  0  0  3  0  0  0  0  0  0
    2.2455   -2.0610    0.2003 H   0  0  0  0  0  0  0  0  0  0  0  0
    2.2044   -1.6158   -1.8015 C   0  0  0  0  0  3  0  0  0  0  0  0
    2.5447   -2.5976   -2.0569 H   0  0  0  0  0  0  0  0  0  0  0  0
    2.6919   -0.7018   -2.7855 C   0  0  0  0  0  3  0  0  0  0  0  0
    4.5218   -0.7060   -2.7690 P   0  0  0  0  0  0  0  0  0  0  0  0
    5.4290   -2.2222   -2.2925 C   0  0  0  0  0  3  0  0  0  0  0  0
    6.6238   -2.3943   -1.3517 C   0  0  0  0  0  3  0  0  0  0  0  0
    7.5323   -2.2558   -1.8997 H   0  0  0  0  0  0  0  0  0  0  0  0
    6.5472   -1.4258   -0.3034 C   0  0  0  0  0  3  0  0  0  0  0  0
    7.4060   -1.5414    0.3243 H   0  0  0  0  0  0  0  0  0  0  0  0
    5.3782   -1.5385    0.5103 C   0  0  0  0  0  3  0  0  0  0  0  0
    5.3459   -2.5110    0.9555 H   0  0  0  0  0  0  0  0  0  0  0  0
    4.1331   -1.3319   -0.3553 C   0  0  0  0  0  3  0  0  0  0  0  0
    3.2555   -1.4577    0.2438 H   0  0  0  0  0  0  0  0  0  0  0  0
    4.1322   -2.3626   -1.4886 C   0  0  0  0  0  3  0  0  0  0  0  0
    4.0705   -3.3483   -1.0768 H   0  0  0  0  0  0  0  0  0  0  0  0
    4.4960   -0.3081   -1.4823 S   0  0  0  0  0  0  0  0  0  0  0  0
    5.6328   -0.3398   -0.7253 Cu  0  0  0  0  0  0  0  0  0  0  0  0
    5.4626   -0.2355    1.9774 I   0  0  0  0  0  0  0  0  0  0  0  0
    6.8752   -0.4255   -1.3391 S   0  0  0  0  0  0  0  0  0  0  0  0
    6.9863   -0.8215   -2.5873 P   0  0  0  0  0  0  0  0  0  0  0  0
    7.2430   -2.5811   -2.1549 C   0  0  0  0  0  3  0  0  0  0  0  0
    6.2859   -3.5779   -1.4970 C   0  0  0  0  0  3  0  0  0  0  0  0
    6.1317   -3.3027   -0.4745 H   0  0  0  0  0  0  0  0  0  0  0  0
    5.0351   -3.5637   -2.1882 C   0  0  0  0  0  3  0  0  0  0  0  0
    4.3708   -4.2421   -1.6948 H   0  0  0  0  0  0  0  0  0  0  0  0
    5.1243   -3.9430   -3.5628 C   0  0  0  0  0  3  0  0  0  0  0  0
    5.5308   -4.9301   -3.6349 H   0  0  0  0  0  0  0  0  0  0  0  0
    6.0344   -2.9609   -4.3043 C   0  0  0  0  0  3  0  0  0  0  0  0
    6.1362   -3.2675   -5.3244 H   0  0  0  0  0  0  0  0  0  0  0  0
    7.4113   -2.9472   -3.6331 C   0  0  0  0  0  3  0  0  0  0  0  0
    7.8594   -3.9155   -3.7140 H   0  0  0  0  0  0  0  0  0  0  0  0
    7.7855   -0.1193   -4.0763 C   0  0  0  0  0  3  0  0  0  0  0  0
    7.9947   -1.1839   -5.1557 C   0  0  0  0  0  3  0  0  0  0  0  0
    8.5657   -1.9938   -4.7520 H   0  0  0  0  0  0  0  0  0  0  0  0
    6.7252   -1.6696   -5.5975 C   0  0  0  0  0  3  0  0  0  0  0  0
    6.8932   -2.4338   -6.3273 H   0  0  0  0  0  0  0  0  0  0  0  0
    5.8888   -0.6685   -6.1803 C   0  0  0  0  0  3  0  0  0  0  0  0
    6.3868   -0.2326   -7.0210 H   0  0  0  0  0  0  0  0  0  0  0  0
    5.5944    0.4170   -5.1423 C   0  0  0  0  0  3  0  0  0  0  0  0
    5.0030    1.1887   -5.5892 H   0  0  0  0  0  0  0  0  0  0  0  0
    6.9170    1.0080   -4.6444 C   0  0  0  0  0  3  0  0  0  0  0  0
    7.4281    1.4792   -5.4578 H   0  0  0  0  0  0  0  0  0  0  0  0
    5.7873   -1.1982   -3.4086 C   0  0  0  0  0  0  0  0  0  0  0  0
    5.7423   -2.2651   -3.4771 H   0  0  0  0  0  0  0  0  0  0  0  0
    5.8793   -0.7639   -4.3821 H   0  0  0  0  0  0  0  0  0  0  0  0
    2.1819    0.7063   -2.4700 C   0  0  0  0  0  3  0  0  0  0  0  0
    2.5802    1.3992   -3.1815 H   0  0  0  0  0  0  0  0  0  0  0  0
    2.6353    1.1009   -1.0610 C   0  0  0  0  0  3  0  0  0  0  0  0
    3.7041    1.1367   -1.0250 H   0  0  0  0  0  0  0  0  0  0  0  0
    4.0627    0.9810   -1.4814 H   0  0  0  0  0  0  0  0  0  0  0  0
    7.6172   -1.2865   -0.5924 H   0  0  0  0  0  0  0  0  0  0  0  0
  1  2  1  0  0  0  0
  2  3  1  0  0  0  0
  2 52  1  0  0  0  0
  3  4  1  0  0  0  0
  3  5  1  0  0  0  0
  5  6  1  0  0  0  0
  5  7  1  0  0  0  0
  7  8  1  0  0  0  0
  7 50  1  0  0  0  0
  8  9  1  0  0  0  0
  8 20  2  0  0  0  0
  8 47  1  0  0  0  0
  9 10  1  0  0  0  0
  9 18  1  0  0  0  0
 10 11  1  0  0  0  0
 10 12  1  0  0  0  0
 12 13  1  0  0  0  0
 12 14  1  0  0  0  0
 14 15  1  0  0  0  0
 14 16  1  0  0  0  0
 16 17  1  0  0  0  0
 16 18  1  0  0  0  0
 18 19  1  0  0  0  0
 20 21  1  0  0  0  0
 20 54  1  0  0  0  0
 21 22  1  0  0  0  0
 21 23  1  0  0  0  0
 23 24  2  0  0  0  0
 23 55  1  0  0  0  0
 24 25  1  0  0  0  0
 24 36  1  0  0  0  0
 24 47  1  0  0  0  0
 25 26  1  0  0  0  0
 25 34  1  0  0  0  0
 26 27  1  0  0  0  0
 26 28  1  0  0  0  0
 28 29  1  0  0  0  0
 28 30  1  0  0  0  0
 30 31  1  0  0  0  0
 30 32  1  0  0  0  0
 32 33  1  0  0  0  0
 32 34  1  0  0  0  0
 34 35  1  0  0  0  0
 36 37  1  0  0  0  0
 36 45  1  0  0  0  0
 37 38  1  0  0  0  0
 37 39  1  0  0  0  0
 39 40  1  0  0  0  0
 39 41  1  0  0  0  0
 41 42  1  0  0  0  0
 41 43  1  0  0  0  0
 43 44  1  0  0  0  0
 43 45  1  0  0  0  0
 45 46  1  0  0  0  0
 47 48  1  0  0  0  0
 47 49  1  0  0  0  0
 50 51  1  0  0  0  0
 50 52  1  0  0  0  0
 52 53  1  0  0  0  0
M  END
$$$$
