
 OpenBabel09252515513D

 43 45  0  0  1  0  0  0  0  0999 V2000
    1.0700    0.0680    0.0217 H   0  0  0  0  0  0  0  0  0  0  0  0
    2.1400    0.0680    0.0217 C   0  0  0  0  0  3  0  0  0  0  0  0
    2.6523   -1.3149   -0.3874 C   0  0  0  0  0  3  0  0  0  0  0  0
    2.2631   -2.0523    0.2832 H   0  0  0  0  0  0  0  0  0  0  0  0
    2.2220   -1.6071   -1.7186 C   0  0  0  0  0  3  0  0  0  0  0  0
    2.5623   -2.5888   -1.9740 H   0  0  0  0  0  0  0  0  0  0  0  0
    2.7095   -0.6931   -2.7027 C   0  0  0  0  0  3  0  0  0  0  0  0
    4.2294   -0.6966   -2.6889 C   0  0  1  0  0  0  0  0  0  0  0  0
    4.5780   -0.3990   -1.7221 H   0  0  0  0  0  0  0  0  0  0  0  0
    4.7357   -2.0952   -3.0017 C   0  0  0  0  0  0  0  0  0  0  0  0
    4.3871   -2.3928   -3.9686 H   0  0  0  0  0  0  0  0  0  0  0  0
    5.8056   -2.0977   -2.9920 H   0  0  0  0  0  0  0  0  0  0  0  0
    4.3707   -2.7797   -2.2647 H   0  0  0  0  0  0  0  0  0  0  0  0
    4.7308    0.2439   -3.7014 N   0  0  0  0  0  4  0  0  0  0  0  0
    4.3984   -0.0398   -4.6231 H   0  0  0  0  0  0  0  0  0  0  0  0
    4.3910    1.1824   -3.4915 H   0  0  0  0  0  0  0  0  0  0  0  0
    6.8007    0.2391   -3.6827 Pt  0  0  0  0  0  0  0  0  0  0  0  0
    6.7969    2.1065   -2.7896 N   0  0  0  0  0  0  0  0  0  0  0  0
    5.6564    2.7026   -2.5161 C   0  0  0  0  0  0  0  0  0  0  0  0
    4.5546    3.2784   -2.2519 O   0  0  0  0  0  0  0  0  0  0  0  0
    8.9206    0.2342   -3.6635 C   0  0  0  0  0  3  0  0  0  0  0  0
    9.4364   -1.0120   -4.3869 C   0  0  0  0  0  3  0  0  0  0  0  0
    9.0411   -1.8874   -3.9155 H   0  0  0  0  0  0  0  0  0  0  0  0
    9.0182   -0.9764   -5.7531 C   0  0  0  0  0  3  0  0  0  0  0  0
    9.3607   -1.8694   -6.2328 H   0  0  0  0  0  0  0  0  0  0  0  0
    9.5146    0.1453   -6.4857 C   0  0  0  0  0  3  0  0  0  0  0  0
   10.5844    0.1382   -6.4675 H   0  0  0  0  0  0  0  0  0  0  0  0
    9.0019    1.4383   -5.8471 C   0  0  0  0  0  3  0  0  0  0  0  0
    9.4067    2.2803   -6.3688 H   0  0  0  0  0  0  0  0  0  0  0  0
    9.4425    1.4835   -4.3807 C   0  0  0  0  0  3  0  0  0  0  0  0
   10.9603    1.5173   -4.3056 C   0  0  1  0  0  0  0  0  0  0  0  0
   11.3233    2.3866   -4.8130 H   0  0  0  0  0  0  0  0  0  0  0  0
   11.3947    1.5621   -2.8496 C   0  0  0  0  0  0  0  0  0  0  0  0
   10.9950    2.4392   -2.3850 H   0  0  0  0  0  0  0  0  0  0  0  0
   11.0317    0.6928   -2.3422 H   0  0  0  0  0  0  0  0  0  0  0  0
   12.4631    1.5859   -2.7968 H   0  0  0  0  0  0  0  0  0  0  0  0
    6.8044   -1.6284   -4.5757 N   0  0  0  0  0  4  0  0  0  0  0  0
    5.9707   -2.1428   -4.2916 H   0  0  0  0  0  0  0  0  0  0  0  0
    6.8080   -1.5202   -5.5900 H   0  0  0  0  0  0  0  0  0  0  0  0
    2.1995    0.7151   -2.3872 C   0  0  0  0  0  3  0  0  0  0  0  0
    2.5978    1.4079   -3.0987 H   0  0  0  0  0  0  0  0  0  0  0  0
    2.6529    1.1097   -0.9781 C   0  0  0  0  0  3  0  0  0  0  0  0
    3.7217    1.1455   -0.9421 H   0  0  0  0  0  0  0  0  0  0  0  0
  1  2  1  0  0  0  0
  2  3  1  0  0  0  0
  2 42  1  0  0  0  0
  3  4  1  0  0  0  0
  3  5  1  0  0  0  0
  5  6  1  0  0  0  0
  5  7  1  0  0  0  0
  7  8  1  0  0  0  0
  7 40  1  0  0  0  0
  8  9  1  1  0  0  0
  8 10  1  0  0  0  0
  8 14  1  0  0  0  0
 10 11  1  0  0  0  0
 10 12  1  0  0  0  0
 10 13  1  0  0  0  0
 14 15  1  0  0  0  0
 14 16  1  0  0  0  0
 14 17  1  0  0  0  0
 17 18  1  0  0  0  0
 17 21  1  0  0  0  0
 17 37  1  0  0  0  0
 18 19  2  0  0  0  0
 19 20  2  0  0  0  0
 21 22  1  0  0  0  0
 21 30  1  0  0  0  0
 22 23  1  0  0  0  0
 22 24  1  0  0  0  0
 24 25  1  0  0  0  0
 24 26  1  0  0  0  0
 26 27  1  0  0  0  0
 26 28  1  0  0  0  0
 28 29  1  0  0  0  0
 28 30  1  0  0  0  0
 30 31  1  0  0  0  0
 31 32  1  6  0  0  0
 31 33  1  0  0  0  0
 31 37  1  0  0  0  0
 33 34  1  0  0  0  0
 33 35  1  0  0  0  0
 33 36  1  0  0  0  0
 37 38  1  0  0  0  0
 37 39  1  0  0  0  0
 40 41  1  0  0  0  0
 40 42  1  0  0  0  0
 42 43  1  0  0  0  0
M  END
$$$$
