
  --CCDC--092525    3D                              

 19 24  0  0  0  0  0  0  0  0999 V2000
   -0.0861    0.1041    0.0037 H      0
   -1.6323    0.4040   -0.0018 Si     0
   -3.2376    0.1042   -1.2678 Cl     0
   -3.0724   -0.9412    0.6202 Cl     0
   -3.4665    1.1180    0.6285 Cl     0
    0.6421    1.8820    0.0036 Mn     0
   -0.7314    2.4440   -1.7399 C      0
   -1.4151    2.7229   -2.6083 O      0
    1.2309    0.7573   -1.9026 C      0
    1.5239    0.1975   -2.8514 O      0
    2.2050    3.3934    0.0079 C      0
    2.6443    2.2780    0.7556 C      0
    1.7371    2.1600    1.8652 C      0
    0.4773    3.0356    1.8158 C      0
   -0.7200    3.1811    2.7274 C      0
    1.0451    3.9070    0.6926 C      0
   -1.5530    2.5906    2.3516 H      0
   -1.0394    4.2194    2.7885 H      0
   -0.4863    2.8364    3.7326 H      0
  1  2  1
  2  3  1
  2  4  1
  2  5  1
  2  6  1
  1  6  1
  6  7  1
  7  8  3
  6  9  1
  9 10  3
  6 11  1
 11 12  4
  6 12  1
 12 13  4
  6 13  1
 13 14  4
  6 14  1
 14 15  1
 14 16  4
  6 16  1
 11 16  4
 15 17  1
 15 18  1
 15 19  1
M  END
$$$$
