
 OpenBabel09252519443D

 44 49  0  0  0  0  0  0  0  0999 V2000
    1.0713   -0.0091   -0.0695 C   0  0  0  0  0  0  0  0  0  0  0  0
    0.5646    1.4083    0.1416 C   0  0  0  0  0  0  0  0  0  0  0  0
   -0.3528    0.4861    0.3349 C   0  0  0  0  0  0  0  0  0  0  0  0
   -0.3191    2.5344   -0.3807 Ir  0  0  0  0  0  0  0  0  0  0  0  0
   -1.5675    1.6172    1.9347 C   0  0  0  0  0  0  0  0  0  0  0  0
   -0.7113    1.7975    0.8930 C   0  0  0  0  0  0  0  0  0  0  0  0
   -1.1114    2.3978   -1.6550 C   0  0  0  0  0  0  0  0  0  0  0  0
   -1.7808    1.3507   -2.2377 C   0  0  0  0  0  0  0  0  0  0  0  0
   -1.8107   -0.0077   -1.5563 C   0  0  0  0  0  0  0  0  0  0  0  0
   -1.2985    0.2926    0.0267 P   0  0  0  0  0  4  0  0  0  0  0  0
   -1.3326   -0.0403    1.8258 C   0  0  0  0  0  0  0  0  0  0  0  0
   -2.0715    0.8834    2.4337 F   0  0  0  0  0  0  0  0  0  0  0  0
   -1.8578   -1.2425    2.0443 F   0  0  0  0  0  0  0  0  0  0  0  0
   -0.0932   -0.0038    2.3070 F   0  0  0  0  0  0  0  0  0  0  0  0
   -3.0038    0.2425   -0.6354 C   0  0  0  0  0  0  0  0  0  0  0  0
   -3.7427    1.1662   -0.0275 F   0  0  0  0  0  0  0  0  0  0  0  0
   -2.9790    0.4844   -1.9430 F   0  0  0  0  0  0  0  0  0  0  0  0
   -3.5290   -0.9598   -0.4169 F   0  0  0  0  0  0  0  0  0  0  0  0
   -2.4353    1.5362   -3.4596 C   0  0  0  0  0  0  0  0  0  0  0  0
   -2.4101    2.7932   -4.0695 C   0  0  0  0  0  0  0  0  0  0  0  0
   -1.7423    3.8386   -3.4745 C   0  0  0  0  0  0  0  0  0  0  0  0
   -1.0830    3.6534   -2.2588 C   0  0  0  0  0  0  0  0  0  0  0  0
   -0.3504    4.5471   -1.4771 C   0  0  0  0  0  0  0  0  0  0  0  0
    0.1317    3.9722   -0.3599 P   0  0  0  0  0  4  0  0  0  0  0  0
    1.9570    4.0872   -0.2974 C   0  0  0  0  0  0  0  0  0  0  0  0
    2.3208    5.3664   -0.2950 F   0  0  0  0  0  0  0  0  0  0  0  0
    2.4007    3.4979    0.8093 F   0  0  0  0  0  0  0  0  0  0  0  0
    2.4760    3.4807   -1.3613 F   0  0  0  0  0  0  0  0  0  0  0  0
   -0.5313    4.8189    1.1208 C   0  0  0  0  0  0  0  0  0  0  0  0
   -1.8605    4.7790    1.0964 F   0  0  0  0  0  0  0  0  0  0  0  0
   -0.0895    4.2075    2.2162 F   0  0  0  0  0  0  0  0  0  0  0  0
   -0.1258    6.0856    1.1260 F   0  0  0  0  0  0  0  0  0  0  0  0
    0.7146   -0.3793   -1.0080 H   0  0  0  0  0  0  0  0  0  0  0  0
    0.7146   -0.6368    0.7203 H   0  0  0  0  0  0  0  0  0  0  0  0
    2.1413   -0.0091   -0.0695 H   0  0  0  0  0  0  0  0  0  0  0  0
   -1.2793   -0.0463    0.3898 H   0  0  0  0  0  0  0  0  0  0  0  0
   -2.4390    2.2317    2.0234 H   0  0  0  0  0  0  0  0  0  0  0  0
   -2.2674    0.0863   -0.5932 H   0  0  0  0  0  0  0  0  0  0  0  0
   -2.3747   -0.6938   -2.1530 H   0  0  0  0  0  0  0  0  0  0  0  0
   -2.9514    0.7220   -3.9239 H   0  0  0  0  0  0  0  0  0  0  0  0
   -2.9118    2.9432   -5.0026 H   0  0  0  0  0  0  0  0  0  0  0  0
   -1.7285    4.7987   -3.9465 H   0  0  0  0  0  0  0  0  0  0  0  0
    0.4829    4.8832   -2.0580 H   0  0  0  0  0  0  0  0  0  0  0  0
   -0.9862    5.3614   -1.1982 H   0  0  0  0  0  0  0  0  0  0  0  0
  1  2  1  0  0  0  0
  1 33  1  0  0  0  0
  1 34  1  0  0  0  0
  1 35  1  0  0  0  0
  2  3  2  0  0  0  0
  2  4  1  0  0  0  0
  2  6  1  0  0  0  0
  3  4  1  0  0  0  0
  3 36  1  0  0  0  0
  4  5  1  0  0  0  0
  4  6  1  0  0  0  0
  4  7  1  0  0  0  0
  4 10  1  0  0  0  0
  4 24  1  0  0  0  0
  5  6  2  0  0  0  0
  5 37  1  0  0  0  0
  7  8  1  0  0  0  0
  7 22  2  0  0  0  0
  8  9  1  0  0  0  0
  8 19  2  0  0  0  0
  9 10  1  0  0  0  0
  9 38  1  0  0  0  0
  9 39  1  0  0  0  0
 10 11  1  0  0  0  0
 10 15  1  0  0  0  0
 11 12  1  0  0  0  0
 11 13  1  0  0  0  0
 11 14  1  0  0  0  0
 15 16  1  0  0  0  0
 15 17  1  0  0  0  0
 15 18  1  0  0  0  0
 19 20  1  0  0  0  0
 19 40  1  0  0  0  0
 20 21  2  0  0  0  0
 20 41  1  0  0  0  0
 21 22  1  0  0  0  0
 21 42  1  0  0  0  0
 22 23  1  0  0  0  0
 23 24  1  0  0  0  0
 23 43  1  0  0  0  0
 23 44  1  0  0  0  0
 24 25  1  0  0  0  0
 24 29  1  0  0  0  0
 25 26  1  0  0  0  0
 25 27  1  0  0  0  0
 25 28  1  0  0  0  0
 29 30  1  0  0  0  0
 29 31  1  0  0  0  0
 29 32  1  0  0  0  0
M  END
$$$$
