
  --CCDC--092525    3D                              

 75 87  0  0  0  0  0  0  0  0999 V2000
    1.8660   -2.7357    1.0113 H      0
    1.2318   -1.8862    0.8412 C      0
    2.2064   -0.6643    0.5551 C      0
    3.3504   -0.6136    0.5068 H      0
    1.4010    0.2595   -0.0552 C      0
    1.7918    1.0829   -0.6342 H      0
   -0.0091   -0.0118    0.0047 C      0
   -0.5617    1.3610    0.3707 C      0
    0.5250    2.3843    1.4502 Si     0
    2.2356    2.8292    0.8396 C      0
    2.9516    2.0317    1.0266 H      0
    2.5908    3.7276    1.3399 H      0
    2.2143    3.0225   -0.2304 H      0
    0.0755    3.5958    2.8095 C      0
   -0.4342    4.4582    2.3829 H      0
    0.9922    3.9713    3.2298 H      0
   -0.4995    3.2367    3.6606 H      0
   -0.1204    3.7077    0.3502 C      0
   -1.0210    4.2314    0.6569 H      0
   -0.3029    3.3036   -0.6397 H      0
    0.6447    4.4676    0.2535 H      0
   -1.6012    1.7736    1.2902 C      0
   -1.7423    2.3680    2.3838 H      0
   -1.9987    0.1659    0.9378 C      0
   -0.8755   -1.1736    0.4357 C      0
   -0.2431   -2.4097    0.9768 C      0
   -0.6572   -3.4816    1.0634 H      0
   -0.3419    0.0315    2.3192 Zr     0
   -1.6546   -2.3582    2.7510 Cl     0
   -2.7162    0.2797    3.6986 Cl     0
    1.5090    1.1711    3.2128 C      0
    2.0540    2.0592    2.9020 H      0
    0.4384    1.0596    4.2360 C      0
    0.3666   -0.8069    4.0503 Si     0
   -1.2110   -1.9032    4.0176 C      0
   -2.1091   -1.8312    3.3505 H      0
   -1.7058   -1.6481    4.9552 H      0
   -0.9439   -2.9378    4.3381 H      0
   -0.3984   -0.5686    5.7764 C      0
   -0.3414   -1.5156    6.2863 H      0
   -1.4563   -0.2529    5.9345 H      0
    0.2173    0.0293    6.4681 H      0
    1.5553   -1.8951    5.0709 C      0
    2.3905   -2.3791    4.5466 H      0
    0.9890   -2.7078    5.5133 H      0
    1.9853   -1.3573    5.9194 H      0
    0.2110   -0.3575    4.5422 C      0
    1.0951   -0.0573    3.5465 C      0
    0.6227   -0.0197    2.5044 H      0
    2.4991    0.0248    3.8637 C      0
    3.0367    0.1309    4.8025 H      0
    2.9531   -0.1886    2.6719 C      0
    3.8291    0.2403    2.1726 H      0
    1.5507   -0.2055    2.7931 C      0
    1.0839    0.3980    1.9689 H      0
    1.1041   -1.1837    3.6823 C      0
    1.8528   -0.2433    2.8687 C      0
   -0.1610   -0.3363    3.1792 Si     0
   -0.7205   -2.2144    3.2374 C      0
    0.1040   -2.7840    2.7855 H      0
   -1.5068   -2.5812    2.5299 H      0
   -0.5879   -2.8396    4.1635 H      0
   -0.5105    0.7393    4.7519 C      0
   -1.5096    0.7627    5.2298 H      0
   -0.9185    1.6019    4.2583 H      0
    0.2025    1.3974    5.3276 H      0
   -2.0429    1.1437    2.5780 Si     0
   -2.4515    3.0270    2.2598 C      0
   -2.5910    3.4341    1.2440 H      0
   -2.2062    3.8181    2.9888 H      0
   -3.5014    2.9952    2.4990 H      0
   -3.7549    0.7372    3.2784 C      0
   -4.0824   -0.3100    3.1622 H      0
   -4.4664    1.2817    2.6571 H      0
   -3.9792    1.1170    4.2896 H      0
  1  2  1
  2  3  4
  3  4  1
  3  5  4
  5  6  1
  5  7  4
  7  8  4
  8  9  1
  9 10  1
 10 11  1
 10 12  1
 10 13  1
  9 14  1
 14 15  1
 14 16  1
 14 17  1
  9 18  1
 18 19  1
 18 20  1
 18 21  1
  8 22  4
 22 23  1
 22 24  4
 24 25  4
  7 25  4
 25 26  4
  2 26  4
 26 27  1
 25 28  1
 22 28  1
 24 28  1
  8 28  1
  7 28  1
 28 29  1
 28 30  1
 28 31  1
 31 32  1
 31 33  4
 28 33  1
 33 34  1
 34 35  1
 35 36  1
 35 37  1
 35 38  1
 34 39  1
 39 40  1
 39 41  1
 39 42  1
 34 43  1
 43 44  1
 43 45  1
 43 46  1
 33 47  4
 28 47  1
 47 48  4
 48 49  1
 48 50  4
 50 51  1
 50 52  4
 52 53  1
 52 54  4
 54 55  1
 54 56  4
 47 56  4
 28 56  1
 56 57  4
 31 57  4
 28 57  1
 57 58  1
 58 59  1
 59 60  1
 59 61  1
 59 62  1
 58 63  1
 63 64  1
 63 65  1
 63 66  1
 58 67  1
 24 67  1
 67 68  1
 68 69  1
 68 70  1
 68 71  1
 67 72  1
 72 73  1
 72 74  1
 72 75  1
M  END
$$$$
