
 OpenBabel09252515353D

 43 45  0  0  1  0  0  0  0  0999 V2000
    1.0702   -0.0175    0.0690 H   0  0  0  0  0  0  0  0  0  0  0  0
    2.1402   -0.0175    0.0690 C   0  0  0  0  0  3  0  0  0  0  0  0
    2.6525   -1.4004   -0.3401 C   0  0  0  0  0  3  0  0  0  0  0  0
    2.2633   -2.1378    0.3305 H   0  0  0  0  0  0  0  0  0  0  0  0
    2.2222   -1.6926   -1.6713 C   0  0  0  0  0  3  0  0  0  0  0  0
    2.5625   -2.6743   -1.9267 H   0  0  0  0  0  0  0  0  0  0  0  0
    2.7097   -0.7786   -2.6554 C   0  0  0  0  0  3  0  0  0  0  0  0
    4.2296   -0.7821   -2.6416 C   0  0  1  0  0  0  0  0  0  0  0  0
    4.5782   -0.4845   -1.6748 H   0  0  0  0  0  0  0  0  0  0  0  0
    4.7359   -2.1807   -2.9544 C   0  0  0  0  0  0  0  0  0  0  0  0
    4.3873   -2.4783   -3.9213 H   0  0  0  0  0  0  0  0  0  0  0  0
    5.8059   -2.1832   -2.9447 H   0  0  0  0  0  0  0  0  0  0  0  0
    4.3710   -2.8653   -2.2174 H   0  0  0  0  0  0  0  0  0  0  0  0
    4.7310    0.1583   -3.6541 N   0  0  0  0  0  4  0  0  0  0  0  0
    4.3986   -0.1253   -4.5758 H   0  0  0  0  0  0  0  0  0  0  0  0
    4.3912    1.0969   -3.4442 H   0  0  0  0  0  0  0  0  0  0  0  0
    6.8009    0.1536   -3.6354 Pt  0  0  0  0  0  0  0  0  0  0  0  0
    6.7907   -1.8210   -3.0143 N   0  0  0  0  0  0  0  0  0  0  0  0
    5.6481   -2.4459   -2.8272 C   0  0  0  0  0  0  0  0  0  0  0  0
    4.5444   -3.0495   -2.6465 O   0  0  0  0  0  0  0  0  0  0  0  0
    8.9208    0.1486   -3.6162 C   0  0  0  0  0  3  0  0  0  0  0  0
    9.4366   -1.0975   -4.3396 C   0  0  0  0  0  3  0  0  0  0  0  0
    9.0414   -1.9730   -3.8682 H   0  0  0  0  0  0  0  0  0  0  0  0
    9.0184   -1.0619   -5.7058 C   0  0  0  0  0  3  0  0  0  0  0  0
    9.3609   -1.9549   -6.1855 H   0  0  0  0  0  0  0  0  0  0  0  0
    9.5148    0.0598   -6.4384 C   0  0  0  0  0  3  0  0  0  0  0  0
   10.5847    0.0527   -6.4202 H   0  0  0  0  0  0  0  0  0  0  0  0
    9.0022    1.3528   -5.7998 C   0  0  0  0  0  3  0  0  0  0  0  0
    9.4069    2.1948   -6.3215 H   0  0  0  0  0  0  0  0  0  0  0  0
    9.4428    1.3980   -4.3334 C   0  0  0  0  0  3  0  0  0  0  0  0
   10.9605    1.4318   -4.2583 C   0  0  1  0  0  0  0  0  0  0  0  0
   11.2663    1.4633   -3.2334 H   0  0  0  0  0  0  0  0  0  0  0  0
   11.4761    2.6667   -4.9791 C   0  0  0  0  0  0  0  0  0  0  0  0
   12.5006    2.5203   -4.7073 H   0  0  0  0  0  0  0  0  0  0  0  0
   11.3794    2.6201   -6.0437 H   0  0  0  0  0  0  0  0  0  0  0  0
   11.1486    3.6247   -4.6328 H   0  0  0  0  0  0  0  0  0  0  0  0
    6.8111    2.1281   -4.2565 N   0  0  0  0  0  4  0  0  0  0  0  0
    5.9794    2.3124   -4.8175 H   0  0  0  0  0  0  0  0  0  0  0  0
    6.8139    2.7410   -3.4411 H   0  0  0  0  0  0  0  0  0  0  0  0
    2.1997    0.6296   -2.3399 C   0  0  0  0  0  3  0  0  0  0  0  0
    2.5980    1.3224   -3.0514 H   0  0  0  0  0  0  0  0  0  0  0  0
    2.6531    1.0242   -0.9308 C   0  0  0  0  0  3  0  0  0  0  0  0
    3.7219    1.0600   -0.8949 H   0  0  0  0  0  0  0  0  0  0  0  0
  1  2  1  0  0  0  0
  2  3  1  0  0  0  0
  2 42  1  0  0  0  0
  3  4  1  0  0  0  0
  3  5  1  0  0  0  0
  5  6  1  0  0  0  0
  5  7  1  0  0  0  0
  7  8  1  0  0  0  0
  7 40  1  0  0  0  0
  8  9  1  1  0  0  0
  8 10  1  0  0  0  0
  8 14  1  0  0  0  0
 10 11  1  0  0  0  0
 10 12  1  0  0  0  0
 10 13  1  0  0  0  0
 14 15  1  0  0  0  0
 14 16  1  0  0  0  0
 14 17  1  0  0  0  0
 17 18  1  0  0  0  0
 17 21  1  0  0  0  0
 17 37  1  0  0  0  0
 18 19  2  0  0  0  0
 19 20  2  0  0  0  0
 21 22  1  0  0  0  0
 21 30  1  0  0  0  0
 22 23  1  0  0  0  0
 22 24  1  0  0  0  0
 24 25  1  0  0  0  0
 24 26  1  0  0  0  0
 26 27  1  0  0  0  0
 26 28  1  0  0  0  0
 28 29  1  0  0  0  0
 28 30  1  0  0  0  0
 30 31  1  0  0  0  0
 31 37  1  0  0  0  0
 31 33  1  0  0  0  0
 31 32  1  1  0  0  0
 33 34  1  0  0  0  0
 33 35  1  0  0  0  0
 33 36  1  0  0  0  0
 37 38  1  0  0  0  0
 37 39  1  0  0  0  0
 40 41  1  0  0  0  0
 40 42  1  0  0  0  0
 42 43  1  0  0  0  0
M  END
$$$$
