
  --CCDC--092525    3D                              

 42 41  0  0  0  0  0  0  0  0999 V2000
   -0.0001   -0.0001   -0.0002 C      0
    1.9234    0.0001   -0.6799 Pt     0
    2.5092    1.0355    0.9771 C      0
    2.2498   -1.7667    0.2862 C      0
    1.3314   -1.0039   -2.3543 N      0
    0.1724   -0.8393   -2.8081 N      3
   -0.8436   -0.7881   -3.3295 N      5
    1.5379    2.0873   -1.8213 P      0
   -0.1239    2.1658   -2.5329 C      0
    2.7365    2.2738   -3.1631 C      0
    1.7458    3.4660   -0.6693 C      0
    4.2009   -0.0294   -1.4674 P      0
    5.1208   -1.2835   -0.5440 C      0
    4.2651   -0.4762   -3.2193 C      0
    5.0347    1.5564   -1.2116 C      0
   -0.4469    0.9761   -0.1760 H      0
   -0.5712   -0.7609   -0.5277 H      0
   -0.0076   -0.2154    1.0665 H      0
    1.6636    1.5934    1.3740 H      0
    3.3063    1.7262    0.7102 H      0
    2.8702    0.3391    1.7311 H      0
    1.3352   -2.0825    0.7837 H      0
    3.0379   -1.6360    1.0247 H      0
    2.5504   -2.5242   -0.4348 H      0
   -0.1998    1.5552   -3.4244 H      0
   -0.9147    1.8942   -1.8420 H      0
   -0.3243    3.1876   -2.8479 H      0
    2.7925    1.3679   -3.7608 H      0
    3.7281    2.5507   -2.8415 H      0
    2.4035    3.0696   -3.8258 H      0
    1.0313    3.3966    0.1483 H      0
    1.5916    4.4173   -1.1743 H      0
    2.7476    3.4661   -0.2448 H      0
    4.6744   -2.2665   -0.6791 H      0
    6.1538   -1.3310   -0.8822 H      0
    5.1226   -1.0553    0.5198 H      0
    3.2800   -0.5374   -3.6677 H      0
    4.7064   -1.4649   -3.3253 H      0
    4.8785    0.2230   -3.7839 H      0
    5.5344    1.8935   -2.1174 H      0
    4.3478    2.3253   -0.8661 H      0
    5.7884    1.4512   -0.4342 H      0
  1  2  1
  2  3  1
  2  4  1
  2  5  1
  5  6  2
  6  7  2
  2  8  1
  8  9  1
  8 10  1
  8 11  1
  2 12  1
 12 13  1
 12 14  1
 12 15  1
  1 16  1
  1 17  1
  1 18  1
  3 19  1
  3 20  1
  3 21  1
  4 22  1
  4 23  1
  4 24  1
  9 25  1
  9 26  1
  9 27  1
 10 28  1
 10 29  1
 10 30  1
 11 31  1
 11 32  1
 11 33  1
 13 34  1
 13 35  1
 13 36  1
 14 37  1
 14 38  1
 14 39  1
 15 40  1
 15 41  1
 15 42  1
M  CHG  2   6   1   7  -1
M  END
$$$$
