
 OpenBabel09252516293D

 49 54  0  0  0  0  0  0  0  0999 V2000
    1.0214   -0.0555    0.0804 C   0  0  0  0  0  0  0  0  0  0  0  0
    0.5147   -1.3413    0.7131 C   0  0  0  0  0  0  0  0  0  0  0  0
    0.8325   -2.5039    0.1855 N   0  0  0  0  0  0  0  0  0  0  0  0
    1.6777   -2.5593   -1.0160 C   0  0  0  0  0  0  0  0  0  0  0  0
    2.9443   -3.3413   -0.7089 C   0  0  0  0  0  0  0  0  0  0  0  0
    2.5771   -4.7533   -0.2822 C   0  0  0  0  0  0  0  0  0  0  0  0
    1.8421   -5.4178   -1.3680 N   0  0  0  0  0  0  0  0  0  0  0  0
    2.0083   -6.7190   -1.5072 C   0  0  0  0  0  0  0  0  0  0  0  0
    1.4537   -7.3493   -2.5420 C   0  0  0  0  0  0  0  0  0  0  0  0
    0.6997   -6.6265   -3.4918 C   0  0  0  0  0  0  0  0  0  0  0  0
    0.5396   -5.3070   -3.3381 O   0  0  0  0  0  0  0  0  0  0  0  0
    1.0827   -4.6949   -2.3059 Cu  0  0  0  0  0  0  0  0  0  0  0  0
    2.2715   -3.2914   -3.0388 O   0  0  0  0  0  0  0  0  0  0  0  0
    3.0059   -2.4526   -2.1593 C   0  0  0  0  0  0  0  0  0  0  0  0
    3.9200   -3.1000   -1.2821 C   0  0  0  0  0  0  0  0  0  0  0  0
    4.5328   -2.3605   -0.2573 C   0  0  0  0  0  0  0  0  0  0  0  0
    4.4847   -1.0609   -0.2746 C   0  0  0  0  0  0  0  0  0  0  0  0
    3.8309   -0.3961   -1.3206 C   0  0  0  0  0  0  0  0  0  0  0  0
    2.9648   -1.1193   -2.1764 C   0  0  0  0  0  0  0  0  0  0  0  0
    0.1049   -7.3029   -4.5810 C   0  0  0  0  0  0  0  0  0  0  0  0
    0.2411   -8.6353   -4.7434 C   0  0  0  0  0  0  0  0  0  0  0  0
    0.9885   -9.4144   -3.8309 C   0  0  0  0  0  0  0  0  0  0  0  0
    1.1258  -10.7989   -4.0067 C   0  0  0  0  0  0  0  0  0  0  0  0
    1.8522  -11.5260   -3.1095 C   0  0  0  0  0  0  0  0  0  0  0  0
    2.4599  -10.9141   -2.0193 C   0  0  0  0  0  0  0  0  0  0  0  0
    2.3443   -9.5683   -1.8197 C   0  0  0  0  0  0  0  0  0  0  0  0
    1.6081   -8.7963   -2.7207 C   0  0  0  0  0  0  0  0  0  0  0  0
    0.6647    0.7828    0.6415 H   0  0  0  0  0  0  0  0  0  0  0  0
    0.6647    0.0113   -0.9262 H   0  0  0  0  0  0  0  0  0  0  0  0
    2.0914   -0.0555    0.0804 H   0  0  0  0  0  0  0  0  0  0  0  0
    0.4925   -3.3667    0.6101 H   0  0  0  0  0  0  0  0  0  0  0  0
    1.1427   -3.0430   -1.8064 H   0  0  0  0  0  0  0  0  0  0  0  0
    1.9362   -1.5654   -1.3164 H   0  0  0  0  0  0  0  0  0  0  0  0
    3.5595   -3.3817   -1.5835 H   0  0  0  0  0  0  0  0  0  0  0  0
    3.4793   -2.8576    0.0815 H   0  0  0  0  0  0  0  0  0  0  0  0
    3.4688   -5.3038   -0.0660 H   0  0  0  0  0  0  0  0  0  0  0  0
    1.9620   -4.7129    0.5924 H   0  0  0  0  0  0  0  0  0  0  0  0
    2.6397   -5.9275   -0.9880 H   0  0  0  0  0  0  0  0  0  0  0  0
    2.5862   -7.2662   -0.7919 H   0  0  0  0  0  0  0  0  0  0  0  0
    4.1386   -4.1406   -1.4019 H   0  0  0  0  0  0  0  0  0  0  0  0
    5.0395   -2.8664    0.5378 H   0  0  0  0  0  0  0  0  0  0  0  0
    4.9449   -0.4986    0.5109 H   0  0  0  0  0  0  0  0  0  0  0  0
    3.9852    0.6519   -1.4719 H   0  0  0  0  0  0  0  0  0  0  0  0
   -0.4668   -6.7454   -5.2932 H   0  0  0  0  0  0  0  0  0  0  0  0
   -0.2260   -9.1119   -5.5798 H   0  0  0  0  0  0  0  0  0  0  0  0
    0.6628  -11.2830   -4.8411 H   0  0  0  0  0  0  0  0  0  0  0  0
    1.9555  -12.5821   -3.2470 H   0  0  0  0  0  0  0  0  0  0  0  0
    3.0248  -11.5045   -1.3286 H   0  0  0  0  0  0  0  0  0  0  0  0
    2.8156   -9.1075   -0.9768 H   0  0  0  0  0  0  0  0  0  0  0  0
  1  2  1  0  0  0  0
  1 28  1  0  0  0  0
  1 29  1  0  0  0  0
  1 30  1  0  0  0  0
  2  3  2  0  0  0  0
  2 19  1  0  0  0  0
  3  4  1  0  0  0  0
  3 12  1  0  0  0  0
  3 31  1  0  0  0  0
  4  5  1  0  0  0  0
  4 32  1  0  0  0  0
  4 33  1  0  0  0  0
  5  6  1  0  0  0  0
  5 34  1  0  0  0  0
  5 35  1  0  0  0  0
  6  7  1  0  0  0  0
  6 36  1  0  0  0  0
  6 37  1  0  0  0  0
  7  8  2  0  0  0  0
  7 12  1  0  0  0  0
  7 38  1  0  0  0  0
  8  9  1  0  0  0  0
  8 39  1  0  0  0  0
  9 10  1  0  0  0  0
  9 27  2  0  0  0  0
 10 11  1  0  0  0  0
 10 20  2  0  0  0  0
 11 12  1  0  0  0  0
 12 13  1  0  0  0  0
 13 14  1  0  0  0  0
 14 15  1  0  0  0  0
 14 19  2  0  0  0  0
 15 16  2  0  0  0  0
 15 40  1  0  0  0  0
 16 17  1  0  0  0  0
 16 41  1  0  0  0  0
 17 18  2  0  0  0  0
 17 42  1  0  0  0  0
 18 19  1  0  0  0  0
 18 43  1  0  0  0  0
 20 21  1  0  0  0  0
 20 44  1  0  0  0  0
 21 22  2  0  0  0  0
 21 45  1  0  0  0  0
 22 23  1  0  0  0  0
 22 27  1  0  0  0  0
 23 24  2  0  0  0  0
 23 46  1  0  0  0  0
 24 25  1  0  0  0  0
 24 47  1  0  0  0  0
 25 26  2  0  0  0  0
 25 48  1  0  0  0  0
 26 27  1  0  0  0  0
 26 49  1  0  0  0  0
M  END
$$$$
