
  --CCDC--092525    3D                              

 26 29  0  0  0  0  0  0  0  0999 V2000
    1.3670   -2.1111    2.3708 H      0
    0.5252   -1.7888    1.7675 C      0
    0.9247   -1.1615    0.5575 C      0
    2.3529   -1.0385    0.2200 C      0
    2.6932   -0.4981   -0.8242 O      0
    3.4025   -1.5423    1.1640 C      0
    3.1622   -1.2629    2.1879 H      0
    4.3725   -1.1134    0.9199 H      0
    3.4888   -2.6256    1.1181 H      0
   -0.1042   -0.5234   -0.3637 C      0
   -0.2431   -0.4846   -1.4554 H      0
   -0.9500   -0.2969    0.8544 C      0
   -1.0102   -0.8725    1.9149 H      0
   -2.3874   -0.7837    0.9744 C      0
   -2.9862   -0.9063    0.0431 H      0
   -2.1098   -1.9980    1.8594 C      0
   -2.5512   -2.9796    1.5808 H      0
   -0.7303   -2.1000    2.3840 N      0
   -0.6545   -2.5580    3.2922 H      0
   -1.2446   -2.2321   -0.0163 Fe     0
   -1.8799   -2.6621   -2.0786 C      0
   -2.2071   -2.8845   -3.1473 O      0
    0.4127   -3.6058   -0.4898 C      0
    1.2697   -4.3162   -0.7347 O      0
   -1.9505   -4.3154   -0.0167 C      0
   -2.3140   -5.3957   -0.0133 O      0
  1  2  1
  2  3  2
  3  4  1
  4  5  2
  4  6  1
  6  7  1
  6  8  1
  6  9  1
  3 10  1
 10 11  1
 10 12  2
 12 13  1
 12 14  1
 14 15  1
 14 16  2
 16 17  1
 16 18  1
  2 18  1
 18 19  1
 16 20  1
 14 20  1
 12 20  1
 10 20  1
 20 21  1
 21 22  3
 20 23  1
 23 24  3
 20 25  1
 25 26  3
M  END
$$$$
