
  --CCDC--092525    3D                              

 53 64  0  0  0  0  0  0  0  0999 V2000
   -0.2820   -0.1784    0.0937 C      0
    1.1154   -0.2544   -0.3151 C      0
    2.1903   -0.2992   -0.7012 N      0
    4.1791   -0.4462   -1.4839 Ru     3
    3.8493    0.6405    1.0057 Br     0
    6.4500    0.8660    1.2885 Ru     0
    6.3296    0.0053    3.2457 C      0
    6.2777   -0.4469    4.2904 O      0
    5.8037    2.0742    2.9344 N      0
    5.4037    2.7730    3.7440 C      0
    4.7974    3.6520    4.7367 C      0
    7.3928    2.2450    0.2091 C      0
    6.1547    1.3732   -0.5641 C      0
    6.2513   -0.3359   -0.1830 C      0
    5.5589   -1.6590    0.2924 C      0
    6.5829   -2.5813    0.9756 C      0
    4.3763   -1.9952    1.2201 C      0
    5.3489   -2.0374   -1.1097 C      0
    4.0162   -2.3680   -2.0601 C      0
    3.9846   -1.2427   -3.3122 C      0
    5.3486   -0.2750   -3.1451 C      0
    6.1904   -0.8077   -1.8124 C      0
    7.6482   -0.5044   -1.2495 C      0
    8.4306   -1.7445   -1.6949 C      0
    8.4782    0.4641   -2.1098 C      0
    7.7900   -0.3449    0.3001 C      0
    8.3959    1.1076    0.8705 C      0
    3.4040    1.5477   -1.6391 C      0
    2.9916    2.6087   -1.7217 O      0
   -0.7592    0.6982   -0.3391 H      0
   -0.3715   -0.1118    1.1762 H      0
   -0.8379   -1.0557   -0.2380 H      0
    3.7118    3.5653    4.7085 H      0
    5.0529    4.6882    4.5418 H      0
    5.1300    3.3996    5.7418 H      0
    7.1569    3.1545    0.7827 H      0
    5.2036    1.8985   -0.4440 H      0
    6.1464   -3.5516    1.2003 H      0
    6.9035   -2.1422    1.9171 H      0
    7.4682   -2.7983    0.3933 H      0
    3.3932   -1.7703    0.8172 H      0
    4.4992   -1.5466    2.2035 H      0
    4.3459   -3.0690    1.3884 H      0
    4.6451   -3.0209   -2.6847 H      0
    4.5880   -1.9209   -3.9343 H      0
    5.8964   -0.9998   -3.7667 H      0
    7.8782   -2.6621   -1.5230 H      0
    9.3896   -1.8112   -1.1861 H      0
    8.6284   -1.7060   -2.7643 H      0
    9.5272    0.4160   -1.8247 H      0
    8.4148    0.1837   -3.1593 H      0
    8.1606    1.5002   -2.0449 H      0
    8.7865    1.2055    1.8952 H      0
  1  2  1
  2  3  3
  3  4  1
  4  5  1
  5  6  1
  6  7  1
  7  8  3
  6  9  1
  9 10  3
 10 11  1
  6 12  1
 12 13  1
  6 13  1
 13 14  1
  6 14  1
 14 15  1
 15 16  1
 15 17  1
 15 18  1
  4 18  1
 18 19  1
  4 19  1
 19 20  1
  4 20  1
 20 21  1
  4 21  1
 21 22  1
  4 22  1
 18 22  1
 22 23  1
 23 24  1
 23 25  1
 23 26  1
  6 26  1
 14 26  1
 26 27  1
  6 27  1
 12 27  1
  4 28  1
 28 29  3
  1 30  1
  1 31  1
  1 32  1
 11 33  1
 11 34  1
 11 35  1
 12 36  1
 13 37  1
 16 38  1
 16 39  1
 16 40  1
 17 41  1
 17 42  1
 17 43  1
 19 44  1
 20 45  1
 21 46  1
 24 47  1
 24 48  1
 24 49  1
 25 50  1
 25 51  1
 25 52  1
 27 53  1
M  CHG  1   4   1
M  END
$$$$
