
     RDKit          3D

  0  0  0  0  0  0  0  0  0  0999 V3000
M  V30 BEGIN CTAB
M  V30 COUNTS 80 84 0 0 0
M  V30 BEGIN ATOM
M  V30 1 C 0.856644 -0.056311 0.968560 0
M  V30 2 Ru 0.845194 0.220263 -0.812279 0 VAL=6
M  V30 3 Cl 0.681654 2.173242 -0.614564 0
M  V30 4 Cl 1.230682 -1.615251 -1.110863 0
M  V30 5 C -0.931086 0.072280 -1.024041 0
M  V30 6 N -1.759547 1.148359 -0.511532 0
M  V30 7 C -1.766631 2.521454 -0.144937 0
M  V30 8 C -1.550718 3.206195 1.021192 0
M  V30 9 C -1.272421 2.407154 2.229997 0
M  V30 10 C -1.591287 4.572876 1.128188 0
M  V30 11 C -1.863428 5.336142 0.016044 0
M  V30 12 C -1.903180 6.811088 0.149111 0
M  V30 13 C -2.083274 4.678753 -1.159030 0
M  V30 14 C -2.047488 3.281757 -1.295977 0
M  V30 15 C -2.322453 2.826952 -2.684183 0
M  V30 16 C -3.085455 0.604759 -0.317611 0
M  V30 17 C -2.984956 -0.765376 -1.006709 0
M  V30 18 N -1.611063 -1.116019 -0.683771 0
M  V30 19 C -1.548793 -2.453945 -0.205133 0
M  V30 20 C -1.633712 -2.975867 1.060862 0
M  V30 21 C -1.869609 -1.983464 2.138196 0
M  V30 22 C -1.554021 -4.312266 1.368048 0
M  V30 23 C -1.376744 -5.181885 0.314019 0
M  V30 24 C -1.295945 -6.623015 0.711441 0
M  V30 25 C -1.284728 -4.717181 -0.997628 0
M  V30 26 C -1.370590 -3.361290 -1.258543 0
M  V30 27 C -1.277236 -3.166631 -2.750811 0
M  V30 28 N 2.640986 0.530242 -0.900162 0
M  V30 29 C 3.374790 -0.652525 -1.351362 0
M  V30 30 C 2.990917 1.572804 -1.854722 0
M  V30 31 C 3.184923 0.987099 0.391133 0 CFG=2
M  V30 32 C 4.513431 1.654550 0.208116 0
M  V30 33 C 3.280475 -0.267456 1.228747 0
M  V30 34 C 4.492521 -0.785867 1.628091 0
M  V30 35 C 4.453287 -1.950668 2.363408 0
M  V30 36 C 3.242873 -2.537088 2.663789 0
M  V30 37 C 2.058990 -1.983718 2.244470 0
M  V30 38 C 2.016409 -0.811907 1.500592 0
M  V30 39 H 0.379717 0.078022 1.927315 0
M  V30 40 H -1.152294 0.162197 -2.167878 0
M  V30 41 H -1.607254 1.367108 2.096730 0
M  V30 42 H -1.715622 2.868009 3.145309 0
M  V30 43 H -0.150729 2.361074 2.358706 0
M  V30 44 H -1.406591 5.009555 2.090690 0
M  V30 45 H -2.454242 7.277440 -0.668942 0
M  V30 46 H -2.418117 7.062120 1.114638 0
M  V30 47 H -0.858287 7.201632 0.172291 0
M  V30 48 H -2.293903 5.356147 -1.999774 0
M  V30 49 H -1.456854 2.992934 -3.361802 0
M  V30 50 H -3.125025 3.499556 -3.102807 0
M  V30 51 H -2.727205 1.820698 -2.769654 0
M  V30 52 H -3.329926 0.493632 0.736570 0
M  V30 53 H -3.899072 1.189191 -0.792508 0
M  V30 54 H -3.756255 -1.425200 -0.641627 0
M  V30 55 H -3.062650 -0.550391 -2.100945 0
M  V30 56 H -1.754324 -0.950830 1.802447 0
M  V30 57 H -2.905093 -2.195255 2.510626 0
M  V30 58 H -1.219922 -2.132086 3.022962 0
M  V30 59 H -1.636274 -4.581186 2.412075 0
M  V30 60 H -0.754800 -6.752389 1.662124 0
M  V30 61 H -0.876782 -7.210578 -0.117537 0
M  V30 62 H -2.349758 -6.958405 0.844999 0
M  V30 63 H -1.149563 -5.542902 -1.670842 0
M  V30 64 H -1.405957 -2.088669 -2.946184 0
M  V30 65 H -2.046950 -3.773313 -3.269716 0
M  V30 66 H -0.232769 -3.441411 -3.020402 0
M  V30 67 H 4.374211 -0.345350 -1.653050 0
M  V30 68 H 2.842900 -0.967216 -2.288965 0
M  V30 69 H 3.330274 -1.476452 -0.610252 0
M  V30 70 H 3.982783 1.466360 -2.293522 0
M  V30 71 H 2.264228 1.511002 -2.718606 0
M  V30 72 H 2.814815 2.602481 -1.447159 0
M  V30 73 H 2.417155 1.616874 0.867004 0
M  V30 74 H 5.092422 1.709936 1.151980 0
M  V30 75 H 5.106791 1.246975 -0.610045 0
M  V30 76 H 4.293048 2.731673 -0.052673 0
M  V30 77 H 5.414281 -0.286973 1.365571 0
M  V30 78 H 5.368733 -2.406667 2.705947 0
M  V30 79 H 3.134950 -3.448487 3.234245 0
M  V30 80 H 1.050498 -2.379100 2.432515 0
M  V30 END ATOM
M  V30 BEGIN BOND
M  V30 1 2 1 2
M  V30 2 1 2 3
M  V30 3 1 2 4
M  V30 4 1 2 5
M  V30 5 1 5 6
M  V30 6 1 6 7
M  V30 7 2 7 8
M  V30 8 1 8 9
M  V30 9 1 8 10
M  V30 10 2 10 11
M  V30 11 1 11 12
M  V30 12 1 11 13
M  V30 13 2 13 14
M  V30 14 1 14 15
M  V30 15 1 6 16
M  V30 16 1 16 17
M  V30 17 1 17 18
M  V30 18 1 18 19
M  V30 19 2 19 20
M  V30 20 1 20 21
M  V30 21 1 20 22
M  V30 22 2 22 23
M  V30 23 1 23 24
M  V30 24 1 23 25
M  V30 25 2 25 26
M  V30 26 1 26 27
M  V30 27 9 28 2
M  V30 28 1 28 29
M  V30 29 1 28 30
M  V30 30 1 28 31
M  V30 31 1 31 32
M  V30 32 1 31 33
M  V30 33 2 33 34
M  V30 34 1 34 35
M  V30 35 2 35 36
M  V30 36 1 36 37
M  V30 37 2 37 38
M  V30 38 1 38 1
M  V30 39 1 18 5
M  V30 40 1 26 19
M  V30 41 1 38 33
M  V30 42 1 14 7
M  V30 43 1 1 39
M  V30 44 1 5 40
M  V30 45 1 9 41
M  V30 46 1 9 42
M  V30 47 1 9 43
M  V30 48 1 10 44
M  V30 49 1 12 45
M  V30 50 1 12 46
M  V30 51 1 12 47
M  V30 52 1 13 48
M  V30 53 1 15 49
M  V30 54 1 15 50
M  V30 55 1 15 51
M  V30 56 1 16 52
M  V30 57 1 16 53
M  V30 58 1 17 54
M  V30 59 1 17 55
M  V30 60 1 21 56
M  V30 61 1 21 57
M  V30 62 1 21 58
M  V30 63 1 22 59
M  V30 64 1 24 60
M  V30 65 1 24 61
M  V30 66 1 24 62
M  V30 67 1 25 63
M  V30 68 1 27 64
M  V30 69 1 27 65
M  V30 70 1 27 66
M  V30 71 1 29 67
M  V30 72 1 29 68
M  V30 73 1 29 69
M  V30 74 1 30 70
M  V30 75 1 30 71
M  V30 76 1 30 72
M  V30 77 1 31 73 CFG=1
M  V30 78 1 32 74
M  V30 79 1 32 75
M  V30 80 1 32 76
M  V30 81 1 34 77
M  V30 82 1 35 78
M  V30 83 1 36 79
M  V30 84 1 37 80
M  V30 END BOND
M  V30 END CTAB
M  END
