
 OpenBabel09252519313D

 57 60  0  0  0  0  0  0  0  0999 V2000
    1.3972   -0.0676    1.4641 H   0  0  0  0  0  0  0  0  0  0  0  0
    1.9692   -0.0860    0.5440 C   0  0  0  0  0  3  0  0  0  0  0  0
    2.0131   -1.3031   -0.2515 C   0  0  0  0  0  3  0  0  0  0  0  0
    1.5485   -2.2044    0.1319 H   0  0  0  0  0  0  0  0  0  0  0  0
    2.9348   -1.4024   -1.3751 C   0  0  0  0  0  3  0  0  0  0  0  0
    3.1406   -2.3810   -1.7938 H   0  0  0  0  0  0  0  0  0  0  0  0
    3.8215   -0.2860   -1.7068 C   0  0  0  0  0  3  0  0  0  0  0  0
    4.8642   -0.5620   -2.6124 N   0  0  0  0  0  0  0  0  0  0  0  0
    4.8817   -0.2796   -4.0351 C   0  0  0  0  0  0  0  0  0  0  0  0
    4.2517    0.8350   -4.4754 C   0  0  0  0  0  0  0  0  0  0  0  0
    5.0225    1.7275   -5.4344 C   0  0  0  0  0  0  0  0  0  0  0  0
    5.6837    2.4931   -6.2570 C   0  0  0  0  0  0  0  0  0  0  0  0
    6.4545    3.3857   -7.2160 C   0  0  0  0  0  3  0  0  0  0  0  0
    5.7494    3.5013   -8.5131 C   0  0  0  0  0  3  0  0  0  0  0  0
    5.5236    2.5981   -9.0676 H   0  0  0  0  0  0  0  0  0  0  0  0
    4.9929    4.7206   -8.7985 C   0  0  0  0  0  3  0  0  0  0  0  0
    4.2292    4.7116   -9.5668 H   0  0  0  0  0  0  0  0  0  0  0  0
    5.0975    5.8644   -7.9000 C   0  0  0  0  0  3  0  0  0  0  0  0
    4.4385    6.7153   -8.0192 H   0  0  0  0  0  0  0  0  0  0  0  0
    6.0734    5.8466   -6.8182 C   0  0  0  0  0  3  0  0  0  0  0  0
    6.2747    6.7410   -6.2435 H   0  0  0  0  0  0  0  0  0  0  0  0
    6.9154    4.6658   -6.6403 C   0  0  0  0  0  3  0  0  0  0  0  0
    8.2534    4.9724   -6.5194 O   0  0  0  0  0  0  0  0  0  0  0  0
    9.1788    4.0287   -7.0453 C   0  0  0  0  0  0  0  0  0  0  0  0
    9.2511    3.1584   -6.3874 H   0  0  0  0  0  0  0  0  0  0  0  0
    8.9254    3.7284   -8.0683 H   0  0  0  0  0  0  0  0  0  0  0  0
   10.1595    4.5129   -7.0875 H   0  0  0  0  0  0  0  0  0  0  0  0
    2.3789    1.0101   -4.7394 Si  0  0  0  0  0  0  0  0  0  0  0  0
    1.6638   -0.6944   -5.1406 C   0  0  0  0  0  0  0  0  0  0  0  0
    1.8374   -1.3963   -4.3211 H   0  0  0  0  0  0  0  0  0  0  0  0
    0.5856   -0.6215   -5.3114 H   0  0  0  0  0  0  0  0  0  0  0  0
    2.1279   -1.0960   -6.0467 H   0  0  0  0  0  0  0  0  0  0  0  0
    1.4504    1.7167   -3.2803 C   0  0  0  0  0  0  0  0  0  0  0  0
    1.9870    2.5602   -2.8380 H   0  0  0  0  0  0  0  0  0  0  0  0
    0.4670    2.0771   -3.6002 H   0  0  0  0  0  0  0  0  0  0  0  0
    1.2771    0.9611   -2.5120 H   0  0  0  0  0  0  0  0  0  0  0  0
    2.0241    2.1344   -6.2275 C   0  0  0  0  0  0  0  0  0  0  0  0
    2.3932    3.1475   -6.0417 H   0  0  0  0  0  0  0  0  0  0  0  0
    2.5019    1.7445   -7.1311 H   0  0  0  0  0  0  0  0  0  0  0  0
    0.9463    2.1902   -6.4068 H   0  0  0  0  0  0  0  0  0  0  0  0
    6.1910   -0.6816   -4.5734 C   0  0  0  0  0  3  0  0  0  0  0  0
    6.5384   -1.0962   -5.9317 C   0  0  0  0  0  3  0  0  0  0  0  0
    5.7632   -1.3910   -6.6287 H   0  0  0  0  0  0  0  0  0  0  0  0
    7.9450   -1.2075   -6.3006 C   0  0  0  0  0  3  0  0  0  0  0  0
    8.2169   -1.5706   -7.2847 H   0  0  0  0  0  0  0  0  0  0  0  0
    8.9869   -0.8474   -5.3397 C   0  0  0  0  0  3  0  0  0  0  0  0
    9.9627   -0.5526   -5.7083 H   0  0  0  0  0  0  0  0  0  0  0  0
    8.6386   -0.6148   -3.9368 C   0  0  0  0  0  3  0  0  0  0  0  0
    9.3298   -0.0930   -3.2855 H   0  0  0  0  0  0  0  0  0  0  0  0
    7.2414   -0.7094   -3.5681 C   0  0  0  0  0  3  0  0  0  0  0  0
    6.5013   -0.4672   -2.0265 S   0  0  0  0  0  0  0  0  0  0  0  0
    6.7829    0.8889   -1.5814 O   0  0  0  0  0  0  0  0  0  0  0  0
    6.7527   -1.6063   -1.1751 O   0  0  0  0  0  0  0  0  0  0  0  0
    3.7879    0.9193   -0.8866 C   0  0  0  0  0  3  0  0  0  0  0  0
    4.4200    1.7657   -1.1248 H   0  0  0  0  0  0  0  0  0  0  0  0
    2.8490    1.0260    0.2215 C   0  0  0  0  0  3  0  0  0  0  0  0
    2.8534    1.9113    0.8451 H   0  0  0  0  0  0  0  0  0  0  0  0
  1  2  1  0  0  0  0
  2  3  1  0  0  0  0
  2 56  1  0  0  0  0
  3  4  1  0  0  0  0
  3  5  1  0  0  0  0
  5  6  1  0  0  0  0
  5  7  1  0  0  0  0
  7  8  1  0  0  0  0
  7 54  1  0  0  0  0
  8  9  1  0  0  0  0
  8 51  1  0  0  0  0
  9 10  2  0  0  0  0
  9 41  1  0  0  0  0
 10 11  1  0  0  0  0
 10 28  1  0  0  0  0
 11 12  3  0  0  0  0
 12 13  1  0  0  0  0
 13 14  1  0  0  0  0
 13 22  1  0  0  0  0
 14 15  1  0  0  0  0
 14 16  1  0  0  0  0
 16 17  1  0  0  0  0
 16 18  1  0  0  0  0
 18 19  1  0  0  0  0
 18 20  1  0  0  0  0
 20 21  1  0  0  0  0
 20 22  1  0  0  0  0
 22 23  1  0  0  0  0
 23 24  1  0  0  0  0
 24 25  1  0  0  0  0
 24 26  1  0  0  0  0
 24 27  1  0  0  0  0
 28 29  1  0  0  0  0
 28 33  1  0  0  0  0
 28 37  1  0  0  0  0
 29 30  1  0  0  0  0
 29 31  1  0  0  0  0
 29 32  1  0  0  0  0
 33 34  1  0  0  0  0
 33 35  1  0  0  0  0
 33 36  1  0  0  0  0
 37 38  1  0  0  0  0
 37 39  1  0  0  0  0
 37 40  1  0  0  0  0
 41 42  1  0  0  0  0
 41 50  1  0  0  0  0
 42 43  1  0  0  0  0
 42 44  1  0  0  0  0
 44 45  1  0  0  0  0
 44 46  1  0  0  0  0
 46 47  1  0  0  0  0
 46 48  1  0  0  0  0
 48 49  1  0  0  0  0
 48 50  1  0  0  0  0
 50 51  1  0  0  0  0
 51 52  2  0  0  0  0
 51 53  2  0  0  0  0
 54 55  1  0  0  0  0
 54 56  1  0  0  0  0
 56 57  1  0  0  0  0
M  END
$$$$
