
  --CCDC--092525    3D                              

114121  0  0  0  0  0  0  0  0999 V2000
    1.5751   -2.2479   -0.5985 C      0
    2.6086   -1.4534   -0.0726 O      0
    3.6748   -2.1889    0.4958 C      0
    4.9294   -1.9232   -0.2837 C      0
    5.1490   -0.5357   -0.2202 O      0
    6.4814   -0.1495   -0.4140 C      0
    3.1418    0.8921   -1.2013 Eu     0
    0.5120    0.5011   -1.2687 N      0
   -0.8067    0.3048   -1.2782 C      0
   -2.4979    0.0530   -1.2905 S      0
    3.9784    2.5273    0.7185 N      0
    4.8730    1.9977    1.6993 C      0
    4.2303    1.1243    2.6018 C      0
    5.0149    0.3945    3.4938 C      0
    6.3798    0.5710    3.5349 C      0
    6.9771    1.5257    2.7363 C      0
    6.2592    2.2985    1.8105 C      0
    7.0206    3.3961    1.0557 C      0
    8.1504    2.9322    0.1409 C      0
    7.6764    4.4233    1.9785 C      0
    2.7108    0.9876    2.6199 C      0
    2.2449   -0.4463    2.8694 C      0
    2.0776    1.8610    3.7052 C      0
    3.4875    3.8733    0.6868 C      0
    2.4458    4.2061   -0.1800 C      0
    1.8495    3.2042   -1.0077 N      0
    0.5835    3.3964   -1.6545 C      0
    0.4232    3.1997   -3.0448 C      0
   -0.8235    3.4268   -3.6190 C      0
   -1.9131    3.7886   -2.8580 C      0
   -1.7698    3.9179   -1.4936 C      0
   -0.5437    3.7364   -0.8558 C      0
   -0.5885    3.8579    0.6667 C      0
   -0.9960    5.2585    1.1312 C      0
   -1.6097    2.8777    1.2384 C      0
    1.4963    2.7418   -4.0093 C      0
    1.0436    1.4533   -4.6932 C      0
    1.7340    3.8070   -5.0793 C      0
    2.0675    5.6086    0.0252 C      0
    1.1906    6.5249   -0.5078 C      0
    1.1333    7.8158    0.0036 C      0
    1.9470    8.2349    1.0194 C      0
    2.8962    7.3466    1.5764 C      0
    3.8239    7.6394    2.6021 C      0
    4.6775    6.6692    3.0490 C      0
    4.6767    5.3812    2.5285 C      0
    3.8114    5.0438    1.5136 C      0
    2.9249    6.0393    1.0547 C      0
    3.2742   -0.1081   -3.6536 O      0
    2.7779   -1.3911   -3.9294 C      0
    4.5046    0.1463   -4.2899 C      0
    4.7313    1.6301   -4.2713 C      0
    4.7185    2.1264   -2.9497 O      0
    4.6796    3.5305   -2.9875 C      0
    1.2537   -1.8608   -1.5637 H      0
    0.7112   -2.2545    0.0642 H      0
    1.9007   -3.2769   -0.7419 H      0
    3.4497   -3.2635    0.4934 H      0
    3.8257   -1.9014    1.5423 H      0
    5.7755   -2.4761    0.1437 H      0
    4.8177   -2.2512   -1.3242 H      0
    6.9640    0.0470    0.5413 H      0
    6.5258    0.7594   -1.0047 H      0
    7.0444   -0.9225   -0.9329 H      0
    4.5711   -0.3214    4.1764 H      0
    6.9843   -0.0285    4.2088 H      0
    8.0434    1.6566    2.8704 H      0
    6.2911    3.9361    0.4345 H      0
    8.7654    2.1713    0.6129 H      0
    8.7978    3.7715   -0.1056 H      0
    7.7654    2.5394   -0.7872 H      0
    7.6211    4.0963    3.0150 H      0
    7.1888    5.3920    1.8983 H      0
    8.7249    4.5555    1.7215 H      0
    2.3221    1.3117    1.6425 H      0
    1.5460   -0.4875    3.7019 H      0
    3.0930   -1.0846    3.1094 H      0
    1.7533   -0.8556    1.9909 H      0
    0.9948    1.7556    3.6944 H      0
    2.3093    2.9121    3.5612 H      0
    2.4317    1.5726    4.6925 H      0
   -0.9429    3.3028   -4.6902 H      0
   -2.8790    3.9532   -3.3239 H      0
   -2.6494    4.1458   -0.9031 H      0
    0.3844    3.6218    1.1143 H      0
   -1.7830    5.2118    1.8800 H      0
   -1.3547    5.8677    0.3063 H      0
   -0.1469    5.7707    1.5784 H      0
   -1.3502    1.8526    0.9828 H      0
   -2.6014    3.0879    0.8431 H      0
   -1.6525    2.9592    2.3228 H      0
    2.4243    2.5492   -3.4578 H      0
    0.1098    1.6079   -5.2299 H      0
    0.8868    0.6650   -3.9596 H      0
    1.7925    1.1088   -5.4030 H      0
    0.8232    3.9832   -5.6488 H      0
    2.5115    3.4947   -5.7733 H      0
    2.0396    4.7494   -4.6294 H      0
    0.5406    6.2389   -1.3280 H      0
    0.4181    8.5147   -0.4196 H      0
    1.8652    9.2492    1.3938 H      0
    3.8631    8.6348    3.0311 H      0
    5.3840    6.9142    3.8356 H      0
    5.3661    4.6412    2.9193 H      0
    1.8064   -1.5398   -3.4630 H      0
    3.4562   -2.1573   -3.5600 H      0
    2.6656   -1.5318   -5.0026 H      0
    5.3209   -0.3813   -3.7808 H      0
    4.4847   -0.2189   -5.3247 H      0
    5.6880    1.8712   -4.7511 H      0
    3.9514    2.1324   -4.8557 H      0
    5.6486    3.9471   -3.2526 H      0
    4.3688    3.9419   -2.0310 H      0
    3.9574    3.8611   -3.7309 H      0
  1  2  1
  2  3  1
  3  4  1
  4  5  1
  5  6  1
  5  7  1
  2  7  1
  7  8  1
  8  9  4
  9 10  4
  7 11  1
 11 12  1
 12 13  4
 13 14  4
 14 15  4
 15 16  4
 16 17  4
 12 17  4
 17 18  1
 18 19  1
 18 20  1
 13 21  1
 21 22  1
 21 23  1
 11 24  1
 24 25  2
 25 26  1
  7 26  1
 26 27  1
 27 28  4
 28 29  4
 29 30  4
 30 31  4
 31 32  4
 27 32  4
 32 33  1
 33 34  1
 33 35  1
 28 36  1
 36 37  1
 36 38  1
 25 39  1
 39 40  4
 40 41  4
 41 42  4
 42 43  4
 43 44  4
 44 45  4
 45 46  4
 46 47  4
 24 47  1
 47 48  4
 39 48  4
 43 48  4
  7 49  1
 49 50  1
 49 51  1
 51 52  1
 52 53  1
  7 53  1
 53 54  1
  1 55  1
  1 56  1
  1 57  1
  3 58  1
  3 59  1
  4 60  1
  4 61  1
  6 62  1
  6 63  1
  6 64  1
 14 65  1
 15 66  1
 16 67  1
 18 68  1
 19 69  1
 19 70  1
 19 71  1
 20 72  1
 20 73  1
 20 74  1
 21 75  1
 22 76  1
 22 77  1
 22 78  1
 23 79  1
 23 80  1
 23 81  1
 29 82  1
 30 83  1
 31 84  1
 33 85  1
 34 86  1
 34 87  1
 34 88  1
 35 89  1
 35 90  1
 35 91  1
 36 92  1
 37 93  1
 37 94  1
 37 95  1
 38 96  1
 38 97  1
 38 98  1
 40 99  1
 41100  1
 42101  1
 44102  1
 45103  1
 46104  1
 50105  1
 50106  1
 50107  1
 51108  1
 51109  1
 52110  1
 52111  1
 54112  1
 54113  1
 54114  1
M  END
$$$$
