
  --CCDC--092525    3D                              

114121  0  0  0  0  0  0  0  0999 V2000
    0.9277   -0.3531   -2.2936 C      0
    1.5965   -0.0080   -1.1101 O      0
    2.4218   -1.0430   -0.6174 C      0
    3.0523   -0.6233    0.6789 C      0
    3.8248    0.5294    0.4341 O      0
    4.6965    0.8275    1.4931 C      0
    2.4042    2.4825   -0.6617 Eu     0
    1.0762    2.4591    1.6419 N      0
    0.4056    2.4432    2.7948 C      0
   -0.4540    2.4229    4.2726 S      0
    4.7644    3.2619   -1.6280 N      0
    5.3072    2.8136   -2.8812 C      0
    5.5564    1.4494   -3.1746 C      0
    6.4352    1.1610   -4.2186 C      0
    6.9363    2.1453   -5.0397 C      0
    6.5296    3.4487   -4.8611 C      0
    5.6628    3.8168   -3.8264 C      0
    5.1526    5.2626   -3.7971 C      0
    6.2712    6.3031   -3.7360 C      0
    4.3295    5.6271   -5.0291 C      0
    4.9497    0.2474   -2.4692 C      0
    4.3698   -0.7310   -3.4978 C      0
    5.9954   -0.4758   -1.6219 C      0
    5.4669    4.2633   -0.8681 C      0
    4.8507    4.8923    0.2145 C      0
    3.5306    4.5186    0.6022 N      0
    2.8139    5.1744    1.6400 C      0
    1.8540    6.1262    1.2589 C      0
    1.2090    6.8421    2.2662 C      0
    1.4955    6.6124    3.6002 C      0
    2.4188    5.6448    3.9540 C      0
    3.0886    4.8919    2.9911 C      0
    4.0280    3.7852    3.4450 C      0
    3.2867    2.7813    4.3274 C      0
    5.2233    4.3199    4.2323 C      0
    1.5182    6.3759   -0.2028 C      0
    0.0116    6.4958   -0.4248 C      0
    2.2055    7.6417   -0.7124 C      0
    5.7255    5.9462    0.7462 C      0
    5.6935    6.9260    1.7148 C      0
    6.7891    7.7601    1.9063 C      0
    7.9247    7.6551    1.1531 C      0
    8.0063    6.6797    0.1330 C      0
    9.1078    6.4613   -0.7244 C      0
    9.0448    5.4797   -1.6726 C      0
    7.9222    4.6755   -1.8371 C      0
    6.8104    4.8483   -1.0397 C      0
    6.8828    5.8481   -0.0482 C      0
    1.9045    2.9384   -3.2306 O      0
    2.0206    1.9291   -4.1974 C      0
    0.8555    3.8462   -3.4880 C      0
   -0.3037    3.4769   -2.6125 C      0
    0.1055    3.6589   -1.2761 O      0
   -0.9676    3.5271   -0.3804 C      0
    1.6354   -0.4941   -3.1078 H      0
    0.2273    0.4274   -2.5834 H      0
    0.3708   -1.2791   -2.1657 H      0
    3.2054   -1.2830   -1.3397 H      0
    1.8340   -1.9581   -0.4747 H      0
    2.2835   -0.4177    1.4341 H      0
    3.6834   -1.4286    1.0750 H      0
    5.3068   -0.0369    1.7460 H      0
    4.1391    1.1183    2.3814 H      0
    5.3622    1.6465    1.2268 H      0
    6.7513    0.1400   -4.3964 H      0
    7.6340    1.8933   -5.8314 H      0
    6.9220    4.1851   -5.5521 H      0
    4.5248    5.4152   -2.9096 H      0
    7.2266    5.8592   -4.0081 H      0
    6.3612    6.7189   -2.7350 H      0
    6.0706    7.1221   -4.4234 H      0
    4.0243    6.6703   -4.9840 H      0
    3.4291    5.0255   -5.1143 H      0
    4.9196    5.4900   -5.9320 H      0
    4.1308    0.5901   -1.8232 H      0
    4.2174   -1.7188   -3.0729 H      0
    5.0337   -0.8571   -4.3487 H      0
    3.4115   -0.3764   -3.8707 H      0
    5.5541   -1.3292   -1.1113 H      0
    6.4102    0.1919   -0.8698 H      0
    6.8127   -0.8377   -2.2422 H      0
    0.4743    7.5971    2.0079 H      0
    0.9926    7.1884    4.3700 H      0
    2.6206    5.4660    5.0048 H      0
    4.4019    3.2591    2.5541 H      0
    2.7817    2.0309    3.7227 H      0
    2.5414    3.2821    4.9414 H      0
    3.9787    2.2721    4.9946 H      0
    4.8947    4.9053    5.0889 H      0
    5.8357    3.4988    4.5988 H      0
    5.8523    4.9476    3.6079 H      0
    1.8866    5.5201   -0.7893 H      0
   -0.5376    5.9967    0.3702 H      0
   -0.2751    6.0436   -1.3720 H      0
   -0.2919    7.5404   -0.4419 H      0
    1.8625    8.5162   -0.1637 H      0
    1.9892    7.7981   -1.7671 H      0
    3.2846    7.5696   -0.5947 H      0
    4.8106    7.0441    2.3340 H      0
    6.7417    8.5195    2.6798 H      0
    8.7618    8.3211    1.3359 H      0
   10.0008    7.0704   -0.6287 H      0
    9.9016    5.3224   -2.3195 H      0
    7.9256    3.9029   -2.5985 H      0
    1.2085    1.2115   -4.1094 H      0
    2.9630    1.3983   -4.0879 H      0
    1.9839    2.3528   -5.1988 H      0
    1.1646    4.8754   -3.2715 H      0
    0.5725    3.8135   -4.5472 H      0
   -1.1688    4.1136   -2.8349 H      0
   -0.6100    2.4386   -2.7913 H      0
   -1.2729    2.4862   -0.2972 H      0
   -1.8250    4.1052   -0.7190 H      0
   -0.6903    3.8795    0.6106 H      0
  1  2  1
  2  3  1
  3  4  1
  4  5  1
  5  6  1
  5  7  1
  2  7  1
  7  8  1
  8  9  4
  9 10  4
  7 11  1
 11 12  1
 12 13  4
 13 14  4
 14 15  4
 15 16  4
 16 17  4
 12 17  4
 17 18  1
 18 19  1
 18 20  1
 13 21  1
 21 22  1
 21 23  1
 11 24  1
 24 25  2
 25 26  1
  7 26  1
 26 27  1
 27 28  4
 28 29  4
 29 30  4
 30 31  4
 31 32  4
 27 32  4
 32 33  1
 33 34  1
 33 35  1
 28 36  1
 36 37  1
 36 38  1
 25 39  1
 39 40  4
 40 41  4
 41 42  4
 42 43  4
 43 44  4
 44 45  4
 45 46  4
 46 47  4
 24 47  1
 47 48  4
 39 48  4
 43 48  4
  7 49  1
 49 50  1
 49 51  1
 51 52  1
 52 53  1
  7 53  1
 53 54  1
  1 55  1
  1 56  1
  1 57  1
  3 58  1
  3 59  1
  4 60  1
  4 61  1
  6 62  1
  6 63  1
  6 64  1
 14 65  1
 15 66  1
 16 67  1
 18 68  1
 19 69  1
 19 70  1
 19 71  1
 20 72  1
 20 73  1
 20 74  1
 21 75  1
 22 76  1
 22 77  1
 22 78  1
 23 79  1
 23 80  1
 23 81  1
 29 82  1
 30 83  1
 31 84  1
 33 85  1
 34 86  1
 34 87  1
 34 88  1
 35 89  1
 35 90  1
 35 91  1
 36 92  1
 37 93  1
 37 94  1
 37 95  1
 38 96  1
 38 97  1
 38 98  1
 40 99  1
 41100  1
 42101  1
 44102  1
 45103  1
 46104  1
 50105  1
 50106  1
 50107  1
 51108  1
 51109  1
 52110  1
 52111  1
 54112  1
 54113  1
 54114  1
M  END
$$$$
