
 OpenBabel08122501053D

 32 34  0  0  0  0  0  0  0  0999 V2000
    0.9243   -0.0362    0.0544 C   0  0  0  0  0  0  0  0  0  0  0  0
    0.4176   -0.6520    1.3484 C   0  0  0  0  0  0  0  0  0  0  0  0
    0.9243    0.1606    2.5288 C   0  0  0  0  0  0  0  0  0  0  0  0
    0.0403    0.7470    3.3804 C   0  0  0  0  0  0  0  0  0  0  0  0
   -1.1024   -0.6520    1.3484 C   0  0  0  0  0  0  0  0  0  0  0  0
   -1.5924   -1.4380    0.2069 N   0  0  0  0  0  0  0  0  0  0  0  0
   -1.2853   -1.0967   -0.9782 N   0  0  0  0  0  0  0  0  0  0  0  0
   -0.5547   -0.0758   -1.1764 N   0  0  0  0  0  2  0  0  0  0  0  0
   -1.6090   -1.2679    2.6424 C   0  0  0  0  0  0  0  0  0  0  0  0
   -1.4858   -2.5502    2.9416 C   0  0  0  0  0  0  0  0  0  0  0  0
   -1.9503   -2.6865    4.3466 C   0  0  0  0  0  0  0  0  0  0  0  0
   -2.2948   -1.4697    4.7336 C   0  0  0  0  0  0  0  0  0  0  0  0
   -2.8272   -1.0948    6.1070 C   0  0  0  0  0  0  0  0  0  0  0  0
   -2.0966   -0.6201    3.7128 Fe  0  0  0  0  0  0  0  0  0  0  0  0
   -4.1501   -0.3201    3.8525 C   0  0  0  0  0  0  0  0  0  0  0  0
   -5.3527   -0.1444    3.9343 O   0  0  0  0  0  0  0  0  0  0  0  0
   -1.1438   -0.5666    5.5610 C   0  0  0  0  0  0  0  0  0  0  0  0
   -0.5859   -0.5352    6.6433 O   0  0  0  0  0  0  0  0  0  0  0  0
   -3.3325   -1.7550    4.9420 C   0  0  0  0  0  0  0  0  0  0  0  0
   -4.0562   -2.4196    5.6618 O   0  0  0  0  0  0  0  0  0  0  0  0
    0.5676    0.9695   -0.0255 H   0  0  0  0  0  0  0  0  0  0  0  0
    0.5676   -0.6082   -0.7765 H   0  0  0  0  0  0  0  0  0  0  0  0
    1.9943   -0.0362    0.0544 H   0  0  0  0  0  0  0  0  0  0  0  0
    0.7743   -1.6577    1.4284 H   0  0  0  0  0  0  0  0  0  0  0  0
    1.9763    0.2715    2.6898 H   0  0  0  0  0  0  0  0  0  0  0  0
    0.3969    1.3191    4.2114 H   0  0  0  0  0  0  0  0  0  0  0  0
   -1.0117    0.6361    3.2194 H   0  0  0  0  0  0  0  0  0  0  0  0
   -1.4590    0.3536    1.2684 H   0  0  0  0  0  0  0  0  0  0  0  0
   -1.6253   -1.6420   -1.7703 H   0  0  0  0  0  0  0  0  0  0  0  0
   -2.1711   -0.3822    6.5616 H   0  0  0  0  0  0  0  0  0  0  0  0
   -3.8032   -0.6679    6.0069 H   0  0  0  0  0  0  0  0  0  0  0  0
   -2.8821   -1.9705    6.7195 H   0  0  0  0  0  0  0  0  0  0  0  0
  1  2  1  0  0  0  0
  1 21  1  0  0  0  0
  1 22  1  0  0  0  0
  1 23  1  0  0  0  0
  2  3  1  0  0  0  0
  2  5  1  0  0  0  0
  2 24  1  0  0  0  0
  3  4  2  0  0  0  0
  3 25  1  0  0  0  0
  4 26  1  0  0  0  0
  4 27  1  0  0  0  0
  5  6  1  0  0  0  0
  5  9  1  0  0  0  0
  5 28  1  0  0  0  0
  6  7  2  0  0  0  0
  7  8  2  0  0  0  0
  7 29  1  0  0  0  0
  9 10  2  0  0  0  0
  9 14  1  0  0  0  0
 10 11  1  0  0  0  0
 10 14  1  0  0  0  0
 11 12  2  0  0  0  0
 11 14  1  0  0  0  0
 12 13  1  0  0  0  0
 12 14  1  0  0  0  0
 13 30  1  0  0  0  0
 13 31  1  0  0  0  0
 13 32  1  0  0  0  0
 14 15  1  0  0  0  0
 14 17  1  0  0  0  0
 14 19  1  0  0  0  0
 15 16  3  0  0  0  0
 17 18  3  0  0  0  0
 19 20  3  0  0  0  0
M  END
$$$$
