
 OpenBabel08122501063D

 87103  0  0  0  0  0  0  0  0999 V2000
    0.8180    1.0620   -0.2230 H   0  0  0  0  0  0  0  0  0  0  0  0
    1.8030   -0.0000    0.2970 Ru  0  0  0  0  0  0  0  0  0  0  0  0
    0.8190   -1.0620   -0.2240 Cl  0  0  0  0  0  2  0  0  0  0  0  0
   -0.2760   -0.0000   -0.0710 Ru  0  0  0  0  0  0  0  0  0  0  0  0
    4.2030    0.5293   -0.3036 P   0  3  0  0  0  0  0  0  0  0  0  0
    4.2623    1.2877   -1.9680 C   0  0  0  0  0  0  0  0  0  0  0  0
    4.9608    0.6786   -2.9974 C   0  0  0  0  0  0  0  0  0  0  0  0
    5.1416    1.5024   -4.1335 C   0  0  0  0  0  0  0  0  0  0  0  0
    4.4400    2.5919   -4.3879 C   0  0  0  0  0  0  0  0  0  0  0  0
    3.7170    3.1064   -3.3477 C   0  0  0  0  0  0  0  0  0  0  0  0
    3.6009    2.4228   -2.1615 C   0  0  0  0  0  0  0  0  0  0  0  0
    4.8957    1.6967    0.9237 C   0  0  0  0  0  0  0  0  0  0  0  0
    5.5155    2.8710    0.5295 C   0  0  0  0  0  0  0  0  0  0  0  0
    6.3938    3.4093    1.4995 C   0  0  0  0  0  0  0  0  0  0  0  0
    6.3869    3.0831    2.7792 C   0  0  0  0  0  0  0  0  0  0  0  0
    5.7000    1.9494    3.1141 C   0  0  0  0  0  0  0  0  0  0  0  0
    4.9246    1.2936    2.1886 C   0  0  0  0  0  0  0  0  0  0  0  0
   -1.4770   -0.0000    0.8690 C   0  0  0  0  0  0  0  0  0  0  0  0
   -2.0468    0.0000    2.2782 C   0  0  0  0  0  0  0  0  0  0  0  0
   -1.6880    0.0000   -0.6480 C   0  0  0  0  0  0  0  0  0  0  0  0
   -2.6206    0.0000   -1.8483 C   0  0  0  0  0  0  0  0  0  0  0  0
   -3.9693   -3.0374   -2.2097 C   0  0  0  0  0  0  0  0  0  0  0  0
   -4.9266   -3.4522   -1.1043 C   0  0  0  0  0  0  0  0  0  0  0  0
   -2.8596   -2.0401   -1.9195 C   0  0  0  0  0  0  0  0  0  0  0  0
   -1.9022   -1.6253   -3.0249 C   0  0  0  0  0  0  0  0  0  0  0  0
   -2.7231   -1.5187   -0.6704 C   0  0  0  0  0  0  0  0  0  0  0  0
   -3.6805   -1.9335    0.4350 C   0  0  0  0  0  0  0  0  0  0  0  0
   -1.6134   -0.5214   -0.3801 C   0  0  0  0  0  0  0  0  0  0  0  0
   -0.6561   -0.1066   -1.4855 C   0  0  0  0  0  0  0  0  0  0  0  0
    1.2202   -1.4053   -1.3197 C   0  0  0  0  0  0  0  0  0  0  0  0
    0.3098   -0.4162   -2.0291 C   0  0  0  0  0  0  0  0  0  0  0  0
    0.4960   -2.6350   -1.0052 C   0  0  0  0  0  0  0  0  0  0  0  0
    0.3145   -3.0438    0.4475 C   0  0  0  0  0  0  0  0  0  0  0  0
   -0.0002   -3.3921   -1.9541 C   0  0  0  0  0  0  0  0  0  0  0  0
   -0.7538   -4.6716   -1.6296 C   0  0  0  0  0  0  0  0  0  0  0  0
    0.2248   -2.9030   -3.5129 C   0  0  0  0  0  0  0  0  0  0  0  0
   -0.3119   -3.7097   -4.6841 C   0  0  0  0  0  0  0  0  0  0  0  0
    1.0145   -1.5732   -3.7311 C   0  0  0  0  0  0  0  0  0  0  0  0
    1.2738   -1.0426   -5.1317 C   0  0  0  0  0  0  0  0  0  0  0  0
    1.4469   -0.9279   -2.6800 C   0  0  0  0  0  0  0  0  0  0  0  0
    2.2146    0.3683   -2.8820 C   0  0  0  0  0  0  0  0  0  0  0  0
    5.3301   -0.3239   -2.9388 H   0  0  0  0  0  0  0  0  0  0  0  0
    5.8996    1.2233   -4.8352 H   0  0  0  0  0  0  0  0  0  0  0  0
    4.4374    3.0475   -5.3561 H   0  0  0  0  0  0  0  0  0  0  0  0
    3.2346    4.0550   -3.4591 H   0  0  0  0  0  0  0  0  0  0  0  0
    2.9719    2.8086   -1.3867 H   0  0  0  0  0  0  0  0  0  0  0  0
    5.3455    3.3295   -0.4222 H   0  0  0  0  0  0  0  0  0  0  0  0
    7.1136    4.1308    1.1735 H   0  0  0  0  0  0  0  0  0  0  0  0
    6.8918    3.6743    3.5144 H   0  0  0  0  0  0  0  0  0  0  0  0
    5.7672    1.5673    4.1113 H   0  0  0  0  0  0  0  0  0  0  0  0
    4.3387    0.4505    2.4898 H   0  0  0  0  0  0  0  0  0  0  0  0
   -2.6481    0.8736    2.4197 H   0  0  0  0  0  0  0  0  0  0  0  0
   -2.6481   -0.8737    2.4197 H   0  0  0  0  0  0  0  0  0  0  0  0
   -1.2453    0.0000    2.9870 H   0  0  0  0  0  0  0  0  0  0  0  0
   -3.2377   -0.8736   -1.8205 H   0  0  0  0  0  0  0  0  0  0  0  0
   -3.2377    0.8737   -1.8205 H   0  0  0  0  0  0  0  0  0  0  0  0
   -2.0428    0.0000   -2.7489 H   0  0  0  0  0  0  0  0  0  0  0  0
   -4.3755   -3.9037   -0.3060 H   0  0  0  0  0  0  0  0  0  0  0  0
   -5.4434   -2.5899   -0.7378 H   0  0  0  0  0  0  0  0  0  0  0  0
   -5.6349   -4.1549   -1.4909 H   0  0  0  0  0  0  0  0  0  0  0  0
   -1.9697   -0.5683   -3.1771 H   0  0  0  0  0  0  0  0  0  0  0  0
   -0.9019   -1.8822   -2.7453 H   0  0  0  0  0  0  0  0  0  0  0  0
   -2.1612   -2.1333   -3.9302 H   0  0  0  0  0  0  0  0  0  0  0  0
   -3.1294   -2.3851    1.2333 H   0  0  0  0  0  0  0  0  0  0  0  0
   -4.1972   -1.0712    0.8015 H   0  0  0  0  0  0  0  0  0  0  0  0
   -4.3887   -2.6362    0.0484 H   0  0  0  0  0  0  0  0  0  0  0  0
   -0.7236    0.9504   -1.6378 H   0  0  0  0  0  0  0  0  0  0  0  0
    0.3443   -0.3635   -1.2060 H   0  0  0  0  0  0  0  0  0  0  0  0
   -0.9151   -0.6146   -2.3909 H   0  0  0  0  0  0  0  0  0  0  0  0
   -0.4714   -0.1106   -1.3648 H   0  0  0  0  0  0  0  0  0  0  0  0
    0.8778    0.4394   -2.3293 H   0  0  0  0  0  0  0  0  0  0  0  0
   -0.1180   -0.8812   -2.8927 H   0  0  0  0  0  0  0  0  0  0  0  0
   -0.7296   -3.1012    0.6741 H   0  0  0  0  0  0  0  0  0  0  0  0
    0.7675   -3.9997    0.6082 H   0  0  0  0  0  0  0  0  0  0  0  0
    0.7780   -2.3181    1.0827 H   0  0  0  0  0  0  0  0  0  0  0  0
   -0.1107   -5.3383   -1.0940 H   0  0  0  0  0  0  0  0  0  0  0  0
   -1.6078   -4.4397   -1.0281 H   0  0  0  0  0  0  0  0  0  0  0  0
   -1.0734   -5.1375   -2.5383 H   0  0  0  0  0  0  0  0  0  0  0  0
    0.1204   -4.6883   -4.6710 H   0  0  0  0  0  0  0  0  0  0  0  0
   -1.3760   -3.7888   -4.6048 H   0  0  0  0  0  0  0  0  0  0  0  0
   -0.0580   -3.2197   -5.6008 H   0  0  0  0  0  0  0  0  0  0  0  0
    1.8374   -1.7627   -5.6873 H   0  0  0  0  0  0  0  0  0  0  0  0
    0.3407   -0.8634   -5.6237 H   0  0  0  0  0  0  0  0  0  0  0  0
    1.8259   -0.1281   -5.0701 H   0  0  0  0  0  0  0  0  0  0  0  0
    3.0932    0.1759   -3.4616 H   0  0  0  0  0  0  0  0  0  0  0  0
    1.5953    1.0732   -3.3963 H   0  0  0  0  0  0  0  0  0  0  0  0
    2.4957    0.7684   -1.9302 H   0  0  0  0  0  0  0  0  0  0  0  0
  1  2  1  0  0  0  0
  1  4  1  0  0  0  0
  2  3  1  0  0  0  0
  2  4  1  0  0  0  0
  2  5  1  0  0  0  0
  2 30  1  0  0  0  0
  2 32  1  0  0  0  0
  2 34  1  0  0  0  0
  2 36  1  0  0  0  0
  2 38  1  0  0  0  0
  2 40  1  0  0  0  0
  3  4  1  0  0  0  0
  4  5  1  0  0  0  0
  4 18  1  0  0  0  0
  4 20  1  0  0  0  0
  4 22  1  0  0  0  0
  4 24  1  0  0  0  0
  4 26  1  0  0  0  0
  4 28  1  0  0  0  0
  5  6  1  0  0  0  0
  5 12  1  0  0  0  0
  6  7  1  0  0  0  0
  6 11  2  0  0  0  0
  7  8  2  0  0  0  0
  7 42  1  0  0  0  0
  8  9  1  0  0  0  0
  8 43  1  0  0  0  0
  9 10  2  0  0  0  0
  9 44  1  0  0  0  0
 10 11  1  0  0  0  0
 10 45  1  0  0  0  0
 11 46  1  0  0  0  0
 12 13  1  0  0  0  0
 12 17  2  0  0  0  0
 13 14  2  0  0  0  0
 13 47  1  0  0  0  0
 14 15  1  0  0  0  0
 14 48  1  0  0  0  0
 15 16  2  0  0  0  0
 15 49  1  0  0  0  0
 16 17  1  0  0  0  0
 16 50  1  0  0  0  0
 17 51  1  0  0  0  0
 18 19  1  0  0  0  0
 18 20  1  0  0  0  0
 18 28  2  0  0  0  0
 19 52  1  0  0  0  0
 19 53  1  0  0  0  0
 19 54  1  0  0  0  0
 20 21  1  0  0  0  0
 20 22  2  0  0  0  0
 21 55  1  0  0  0  0
 21 56  1  0  0  0  0
 21 57  1  0  0  0  0
 22 23  1  0  0  0  0
 22 24  1  0  0  0  0
 23 58  1  0  0  0  0
 23 59  1  0  0  0  0
 23 60  1  0  0  0  0
 24 25  1  0  0  0  0
 24 26  2  0  0  0  0
 25 61  1  0  0  0  0
 25 62  1  0  0  0  0
 25 63  1  0  0  0  0
 26 27  1  0  0  0  0
 26 28  1  0  0  0  0
 27 64  1  0  0  0  0
 27 65  1  0  0  0  0
 27 66  1  0  0  0  0
 28 29  1  0  0  0  0
 29 67  1  0  0  0  0
 29 68  1  0  0  0  0
 29 69  1  0  0  0  0
 30 31  1  0  0  0  0
 30 32  1  0  0  0  0
 30 40  2  0  0  0  0
 31 70  1  0  0  0  0
 31 71  1  0  0  0  0
 31 72  1  0  0  0  0
 32 33  1  0  0  0  0
 32 34  2  0  0  0  0
 33 73  1  0  0  0  0
 33 74  1  0  0  0  0
 33 75  1  0  0  0  0
 34 35  1  0  0  0  0
 34 36  1  0  0  0  0
 35 76  1  0  0  0  0
 35 77  1  0  0  0  0
 35 78  1  0  0  0  0
 36 37  1  0  0  0  0
 36 38  2  0  0  0  0
 37 79  1  0  0  0  0
 37 80  1  0  0  0  0
 37 81  1  0  0  0  0
 38 39  1  0  0  0  0
 38 40  1  0  0  0  0
 39 82  1  0  0  0  0
 39 83  1  0  0  0  0
 39 84  1  0  0  0  0
 40 41  1  0  0  0  0
 41 85  1  0  0  0  0
 41 86  1  0  0  0  0
 41 87  1  0  0  0  0
M  CHG  1   5   1
M  END
$$$$
