
 OpenBabel08122501053D

 57 60  0  0  0  0  0  0  0  0999 V2000
    1.7530   -0.8415    0.7116 C   0  0  0  0  0  0  0  0  0  0  0  0
    0.7294   -1.6722    0.1674 O   0  0  0  0  0  0  0  0  0  0  0  0
    0.9028   -2.0908   -1.1292 C   0  0  0  0  0  0  0  0  0  0  0  0
    2.1361   -2.0074   -1.7995 C   0  0  0  0  0  0  0  0  0  0  0  0
    2.2693   -2.4503   -3.1161 C   0  0  0  0  0  0  0  0  0  0  0  0
    1.1741   -2.9922   -3.7772 C   0  0  0  0  0  0  0  0  0  0  0  0
   -0.0563   -3.0872   -3.1228 C   0  0  0  0  0  0  0  0  0  0  0  0
   -0.2090   -2.6416   -1.7996 C   0  0  0  0  0  0  0  0  0  0  0  0
   -1.5334   -2.7146   -1.2263 C   0  0  0  0  0  0  0  0  0  0  0  0
   -2.6872   -2.7092   -0.8624 C   0  0  0  0  0  0  0  0  0  0  0  0
   -4.0834   -2.6638   -0.4862 C   0  0  0  0  0  0  0  0  0  0  0  0
   -4.6486   -1.6770    0.2584 C   0  0  0  0  0  0  0  0  0  0  0  0
   -3.9792   -0.4086    0.5208 N   0  0  0  0  0  0  0  0  0  0  0  0
   -2.8019    0.1401   -0.0715 C   0  0  0  0  0  0  0  0  0  0  0  0
   -2.6479    0.2945   -1.4525 C   0  0  0  0  0  0  0  0  0  0  0  0
   -1.4926    0.8920   -1.9658 C   0  0  0  0  0  0  0  0  0  0  0  0
   -0.5356    1.4219   -1.1013 C   0  0  0  0  0  0  0  0  0  0  0  0
   -0.7375    1.3669    0.2758 C   0  0  0  0  0  0  0  0  0  0  0  0
   -1.8626    0.7216    0.7876 C   0  0  0  0  0  0  0  0  0  0  0  0
   -5.1594    0.7803    0.9261 S   0  0  0  0  0  0  0  0  0  0  0  0
   -4.8613    1.3278    2.2335 O   0  0  0  0  0  0  0  0  0  0  0  0
   -5.4830    1.6040   -0.2185 O   0  0  0  0  0  0  0  0  0  0  0  0
   -6.4558   -0.3631    1.1184 C   0  0  0  0  0  0  0  0  0  0  0  0
   -7.7169   -0.0534    1.6112 C   0  0  0  0  0  0  0  0  0  0  0  0
   -8.5638   -1.1128    1.9137 C   0  0  0  0  0  0  0  0  0  0  0  0
   -8.0823   -2.4230    1.8355 C   0  0  0  0  0  0  0  0  0  0  0  0
   -6.7812   -2.6798    1.3775 C   0  0  0  0  0  0  0  0  0  0  0  0
   -6.0010   -1.6503    0.8724 C   0  0  0  0  0  0  0  0  0  0  0  0
   -4.9901   -4.1997   -1.2748 Si  0  0  0  0  0  0  0  0  0  0  0  0
   -4.7561   -4.1608   -3.1645 C   0  0  0  0  0  0  0  0  0  0  0  0
   -4.1887   -5.7624   -0.5805 C   0  0  0  0  0  0  0  0  0  0  0  0
   -6.8566   -4.4061   -1.1069 C   0  0  0  0  0  0  0  0  0  0  0  0
    1.4054   -0.4590    1.6759 H   0  0  0  0  0  0  0  0  0  0  0  0
    1.9583    0.0225    0.0682 H   0  0  0  0  0  0  0  0  0  0  0  0
    2.6700   -1.4111    0.8939 H   0  0  0  0  0  0  0  0  0  0  0  0
    3.0219   -1.6022   -1.3205 H   0  0  0  0  0  0  0  0  0  0  0  0
    3.2299   -2.3720   -3.6199 H   0  0  0  0  0  0  0  0  0  0  0  0
    1.2756   -3.3372   -4.8028 H   0  0  0  0  0  0  0  0  0  0  0  0
   -0.9063   -3.5028   -3.6586 H   0  0  0  0  0  0  0  0  0  0  0  0
   -3.4006   -0.0840   -2.1370 H   0  0  0  0  0  0  0  0  0  0  0  0
   -1.3354    0.9364   -3.0399 H   0  0  0  0  0  0  0  0  0  0  0  0
    0.3685    1.8739   -1.5002 H   0  0  0  0  0  0  0  0  0  0  0  0
   -0.0096    1.8013    0.9552 H   0  0  0  0  0  0  0  0  0  0  0  0
   -2.0077    0.6725    1.8644 H   0  0  0  0  0  0  0  0  0  0  0  0
   -8.0213    0.9764    1.7687 H   0  0  0  0  0  0  0  0  0  0  0  0
   -9.5742   -0.9248    2.2683 H   0  0  0  0  0  0  0  0  0  0  0  0
   -8.7159   -3.2513    2.1466 H   0  0  0  0  0  0  0  0  0  0  0  0
   -6.3991   -3.6929    1.4365 H   0  0  0  0  0  0  0  0  0  0  0  0
   -3.7047   -4.2218   -3.4487 H   0  0  0  0  0  0  0  0  0  0  0  0
   -5.2914   -5.0066   -3.6104 H   0  0  0  0  0  0  0  0  0  0  0  0
   -5.1905   -3.2408   -3.5685 H   0  0  0  0  0  0  0  0  0  0  0  0
   -4.1692   -5.7177    0.5128 H   0  0  0  0  0  0  0  0  0  0  0  0
   -4.7634   -6.6460   -0.8745 H   0  0  0  0  0  0  0  0  0  0  0  0
   -3.1648   -5.8754   -0.9451 H   0  0  0  0  0  0  0  0  0  0  0  0
   -7.1362   -4.8735   -0.1593 H   0  0  0  0  0  0  0  0  0  0  0  0
   -7.3893   -3.4601   -1.2325 H   0  0  0  0  0  0  0  0  0  0  0  0
   -7.2197   -5.0857   -1.8860 H   0  0  0  0  0  0  0  0  0  0  0  0
  1  2  1  0  0  0  0
  1 33  1  0  0  0  0
  1 34  1  0  0  0  0
  1 35  1  0  0  0  0
  2  3  1  0  0  0  0
  3  4  1  0  0  0  0
  3  8  2  0  0  0  0
  4  5  2  0  0  0  0
  4 36  1  0  0  0  0
  5  6  1  0  0  0  0
  5 37  1  0  0  0  0
  6  7  2  0  0  0  0
  6 38  1  0  0  0  0
  7  8  1  0  0  0  0
  7 39  1  0  0  0  0
  8  9  1  0  0  0  0
  9 10  3  0  0  0  0
 10 11  1  0  0  0  0
 11 12  2  0  0  0  0
 11 29  1  0  0  0  0
 12 13  1  0  0  0  0
 12 28  1  0  0  0  0
 13 14  1  0  0  0  0
 13 20  1  0  0  0  0
 14 15  1  0  0  0  0
 14 19  2  0  0  0  0
 15 16  2  0  0  0  0
 15 40  1  0  0  0  0
 16 17  1  0  0  0  0
 16 41  1  0  0  0  0
 17 18  2  0  0  0  0
 17 42  1  0  0  0  0
 18 19  1  0  0  0  0
 18 43  1  0  0  0  0
 19 44  1  0  0  0  0
 20 21  2  0  0  0  0
 20 22  2  0  0  0  0
 20 23  1  0  0  0  0
 23 24  1  0  0  0  0
 23 28  2  0  0  0  0
 24 25  2  0  0  0  0
 24 45  1  0  0  0  0
 25 26  1  0  0  0  0
 25 46  1  0  0  0  0
 26 27  2  0  0  0  0
 26 47  1  0  0  0  0
 27 28  1  0  0  0  0
 27 48  1  0  0  0  0
 29 30  1  0  0  0  0
 29 31  1  0  0  0  0
 29 32  1  0  0  0  0
 30 49  1  0  0  0  0
 30 50  1  0  0  0  0
 30 51  1  0  0  0  0
 31 52  1  0  0  0  0
 31 53  1  0  0  0  0
 31 54  1  0  0  0  0
 32 55  1  0  0  0  0
 32 56  1  0  0  0  0
 32 57  1  0  0  0  0
M  END
$$$$
