
 OpenBabel09252519013D

 32 35  0  0  0  0  0  0  0  0999 V2000
    1.7312    1.0605   -0.7743 H   0  0  0  0  0  0  0  0  0  0  0  0
    2.2675    0.2869   -0.2354 C   0  0  0  0  0  3  0  0  0  0  0  0
    1.6666   -1.0283   -0.1180 C   0  0  0  0  0  3  0  0  0  0  0  0
    0.6911   -1.2164   -0.5507 H   0  0  0  0  0  0  0  0  0  0  0  0
    2.4776   -2.1414    0.3352 C   0  0  0  0  0  3  0  0  0  0  0  0
    2.0200   -3.1139    0.4631 H   0  0  0  0  0  0  0  0  0  0  0  0
    3.9038   -1.9559    0.5349 C   0  0  0  0  0  3  0  0  0  0  0  0
    4.5361   -0.6184    0.5664 C   0  0  0  0  0  3  0  0  0  0  0  0
    3.6929    0.4687    0.0222 C   0  0  0  0  0  3  0  0  0  0  0  0
    4.1645    1.2847   -0.5074 H   0  0  0  0  0  0  0  0  0  0  0  0
    5.9798   -0.5131    0.9146 C   0  0  0  0  0  0  0  0  0  0  0  0
    6.7067   -1.6640    0.8786 C   0  0  0  0  0  0  0  0  0  0  0  0
    6.0789   -2.9921    0.5845 C   0  0  0  0  0  0  0  0  0  0  0  0
    6.7468   -4.0148    0.4517 O   0  0  0  0  0  0  0  0  0  0  0  0
    4.7184   -3.0439    0.5264 N   0  0  0  0  0  0  0  0  0  0  0  0
    4.3304   -3.9661    0.3812 H   0  0  0  0  0  0  0  0  0  0  0  0
    8.1819   -1.7329    1.1904 C   0  0  0  0  0  0  0  0  0  0  0  0
    8.7408   -1.5273    0.2680 H   0  0  0  0  0  0  0  0  0  0  0  0
    8.4802   -2.7353    1.5185 H   0  0  0  0  0  0  0  0  0  0  0  0
    8.5960   -0.7607    2.2859 C   0  0  0  0  0  0  0  0  0  0  0  0
    9.6914   -0.7235    2.3285 H   0  0  0  0  0  0  0  0  0  0  0  0
    8.2517   -1.1327    3.2596 H   0  0  0  0  0  0  0  0  0  0  0  0
    8.0259    0.6002    2.0626 C   0  0  0  0  0  3  0  0  0  0  0  0
    8.7054    1.7471    2.6536 C   0  0  0  0  0  3  0  0  0  0  0  0
    9.6644    1.6240    3.1427 H   0  0  0  0  0  0  0  0  0  0  0  0
    8.0631    3.0434    2.6740 C   0  0  0  0  0  3  0  0  0  0  0  0
    8.5220    3.8722    3.1977 H   0  0  0  0  0  0  0  0  0  0  0  0
    6.7635    3.1970    2.0605 C   0  0  0  0  0  3  0  0  0  0  0  0
    6.2304    4.1357    2.1457 H   0  0  0  0  0  0  0  0  0  0  0  0
    6.1747    2.0972    1.3111 C   0  0  0  0  0  3  0  0  0  0  0  0
    5.4941    2.3830    0.5264 H   0  0  0  0  0  0  0  0  0  0  0  0
    6.6885    0.7140    1.4076 C   0  0  0  0  0  3  0  0  0  0  0  0
  1  2  1  0  0  0  0
  2  3  1  0  0  0  0
  2  9  1  0  0  0  0
  3  4  1  0  0  0  0
  3  5  1  0  0  0  0
  5  6  1  0  0  0  0
  5  7  1  0  0  0  0
  7  8  1  0  0  0  0
  7 15  1  0  0  0  0
  8  9  1  0  0  0  0
  8 11  1  0  0  0  0
  9 10  1  0  0  0  0
 11 12  2  0  0  0  0
 11 32  1  0  0  0  0
 12 13  1  0  0  0  0
 12 17  1  0  0  0  0
 13 14  2  0  0  0  0
 13 15  1  0  0  0  0
 15 16  1  0  0  0  0
 17 18  1  0  0  0  0
 17 19  1  0  0  0  0
 17 20  1  0  0  0  0
 20 21  1  0  0  0  0
 20 22  1  0  0  0  0
 20 23  1  0  0  0  0
 23 24  1  0  0  0  0
 23 32  1  0  0  0  0
 24 25  1  0  0  0  0
 24 26  1  0  0  0  0
 26 27  1  0  0  0  0
 26 28  1  0  0  0  0
 28 29  1  0  0  0  0
 28 30  1  0  0  0  0
 30 31  1  0  0  0  0
 30 32  1  0  0  0  0
M  END
$$$$
