
 OpenBabel09252513123D

 35 38  0  0  0  0  0  0  0  0999 V2000
    1.1397   -0.4261   -0.1504 F   0  0  0  0  0  0  0  0  0  0  0  0
    2.4834   -0.2114   -0.2369 C   0  0  0  0  0  0  0  0  0  0  0  0
    2.9678   -0.3582    1.0259 F   0  0  0  0  0  0  0  0  0  0  0  0
    2.9776   -1.2606   -0.9523 F   0  0  0  0  0  0  0  0  0  0  0  0
    2.8157    1.1307   -0.8371 C   0  0  0  0  0  0  0  0  0  0  0  0
    3.7952    1.2748   -1.8270 C   0  0  0  0  0  0  0  0  0  0  0  0
    4.0545    2.5289   -2.3848 C   0  0  0  0  0  0  0  0  0  0  0  0
    3.3431    3.6538   -1.9575 C   0  0  0  0  0  0  0  0  0  0  0  0
    2.4125    3.5356   -0.9259 C   0  0  0  0  0  0  0  0  0  0  0  0
    2.1486    2.2757   -0.3793 C   0  0  0  0  0  0  0  0  0  0  0  0
    1.7730    4.6789   -0.3856 N   0  0  0  0  0  0  0  0  0  0  0  0
    1.1547    5.8478   -1.5443 C   0  0  0  0  0  0  0  0  0  0  0  0
    0.1839    7.0949   -0.7956 C   0  0  0  0  0  0  0  0  0  0  0  0
    0.8850    8.7025   -1.0012 Cl  0  0  0  0  0  0  0  0  0  0  0  0
   -1.1732    7.2232   -0.3044 O   0  0  0  0  0  0  0  0  0  0  0  0
   -1.3947    6.3459    0.8548 C   0  0  0  0  0  0  0  0  0  0  0  0
   -3.2352    6.1578    1.3112 Br  0  0  0  0  0  0  0  0  0  0  0  0
   -0.5240    6.5484    2.1497 C   0  0  0  0  0  0  0  0  0  0  0  0
    0.9201    6.2264    1.7372 C   0  0  0  0  0  0  0  0  0  0  0  0
    0.6425    6.3971    0.3502 C   0  0  0  0  0  0  0  0  0  0  0  0
   -0.6276    5.1999    0.3507 C   0  0  0  0  0  0  0  0  0  0  0  0
   -1.6131    4.2391   -1.3375 I   0  0  0  0  0  0  0  0  0  0  0  0
    1.6995    4.8241    1.1907 C   0  0  0  0  0  0  0  0  0  0  0  0
    2.1394    4.0010    1.9818 O   0  0  0  0  0  0  0  0  0  0  0  0
    4.3639    0.4098   -2.1655 H   0  0  0  0  0  0  0  0  0  0  0  0
    4.8316    2.6331   -3.1390 H   0  0  0  0  0  0  0  0  0  0  0  0
    3.5975    4.6210   -2.3793 H   0  0  0  0  0  0  0  0  0  0  0  0
    1.3987    2.1672    0.4035 H   0  0  0  0  0  0  0  0  0  0  0  0
    2.0668    6.3157   -1.9406 H   0  0  0  0  0  0  0  0  0  0  0  0
    0.6698    5.3161   -2.3621 H   0  0  0  0  0  0  0  0  0  0  0  0
   -0.8242    5.8854    2.9709 H   0  0  0  0  0  0  0  0  0  0  0  0
   -0.5990    7.5882    2.4885 H   0  0  0  0  0  0  0  0  0  0  0  0
    1.6578    6.9027    2.1805 H   0  0  0  0  0  0  0  0  0  0  0  0
    1.7307    6.5964    0.1693 H   0  0  0  0  0  0  0  0  0  0  0  0
   -0.5467    4.4027    1.1060 H   0  0  0  0  0  0  0  0  0  0  0  0
  1  2  1  0  0  0  0
  2  3  1  0  0  0  0
  2  4  1  0  0  0  0
  2  5  1  0  0  0  0
  5  6  1  0  0  0  0
  5 10  2  0  0  0  0
  6  7  2  0  0  0  0
  6 25  1  0  0  0  0
  7  8  1  0  0  0  0
  7 26  1  0  0  0  0
  8  9  2  0  0  0  0
  8 27  1  0  0  0  0
  9 10  1  0  0  0  0
  9 11  1  0  0  0  0
 10 28  1  0  0  0  0
 11 12  1  0  0  0  0
 11 23  1  0  0  0  0
 12 13  1  0  0  0  0
 12 29  1  0  0  0  0
 12 30  1  0  0  0  0
 13 14  1  0  0  0  0
 13 15  1  0  0  0  0
 13 20  1  0  0  0  0
 15 16  1  0  0  0  0
 16 17  1  0  0  0  0
 16 18  1  0  0  0  0
 16 21  1  0  0  0  0
 18 19  1  0  0  0  0
 18 31  1  0  0  0  0
 18 32  1  0  0  0  0
 19 20  1  0  0  0  0
 19 23  1  0  0  0  0
 19 33  1  0  0  0  0
 20 21  1  0  0  0  0
 20 34  1  0  0  0  0
 21 22  1  0  0  0  0
 21 35  1  0  0  0  0
 23 24  2  0  0  0  0
M  END
$$$$
