
     RDKit          3D

 57 60  0  0  0  0  0  0  0  0999 V2000
   -5.4605    0.0147   -1.3543 C   0  0  0  0  0  0  0  0  0  0  0  0
   -4.6447    0.6568   -0.4247 C   0  0  0  0  0  0  0  0  0  0  0  0
   -3.4779    0.0380    0.0331 C   0  0  0  0  0  0  0  0  0  0  0  0
   -3.1061   -1.2215   -0.4564 C   0  0  0  0  0  0  0  0  0  0  0  0
   -1.9411   -1.9637    0.0097 N   0  0  0  0  0  0  0  0  0  0  0  0
   -0.8373   -1.1463    0.5025 C   0  0  0  0  0  0  0  0  0  0  0  0
    0.0703   -0.6985   -0.3920 C   0  0  0  0  0  0  0  0  0  0  0  0
    1.2237    0.0438    0.0170 C   0  0  0  0  0  0  0  0  0  0  0  0
    2.1988    0.6666    0.3432 C   0  0  0  0  0  0  0  0  0  0  0  0
    3.3601    1.4131    0.7297 C   0  0  0  0  0  0  0  0  0  0  0  0
    4.2268    0.8546    1.6771 C   0  0  0  0  0  0  0  0  0  0  0  0
    5.3663    1.5484    2.0799 C   0  0  0  0  0  0  0  0  0  0  0  0
    5.6411    2.8009    1.5371 C   0  0  0  0  0  0  0  0  0  0  0  0
    4.7795    3.3643    0.5901 C   0  0  0  0  0  0  0  0  0  0  0  0
    3.6324    2.6773    0.1765 C   0  0  0  0  0  0  0  0  0  0  0  0
    2.7296    3.1502   -0.7423 O   0  0  0  0  0  0  0  0  0  0  0  0
    3.0103    4.4013   -1.3546 C   0  0  0  0  0  0  0  0  0  0  0  0
    0.1178   -0.9940   -2.2719 Si  0  0  0  0  0  4  0  0  0  0  0  0
    1.8658   -0.6894   -2.9520 C   0  0  0  0  0  0  0  0  0  0  0  0
   -1.0331    0.2013   -3.1507 C   0  0  0  0  0  0  0  0  0  0  0  0
   -0.3129   -2.7715   -2.7030 C   0  0  0  0  0  0  0  0  0  0  0  0
   -0.8216   -1.0478    1.9810 C   0  0  0  0  0  0  0  0  0  0  0  0
   -0.2387   -0.1086    2.8240 C   0  0  0  0  0  0  0  0  0  0  0  0
   -0.4277   -0.2106    4.2108 C   0  0  0  0  0  0  0  0  0  0  0  0
   -1.2159   -1.2331    4.7581 C   0  0  0  0  0  0  0  0  0  0  0  0
   -1.8286   -2.1631    3.9243 C   0  0  0  0  0  0  0  0  0  0  0  0
   -1.6048   -2.0412    2.5611 C   0  0  0  0  0  0  0  0  0  0  0  0
   -2.3253   -3.0489    1.3304 S   0  0  0  0  0  6  0  0  0  0  0  0
   -1.4984   -4.2328    1.2237 O   0  0  0  0  0  0  0  0  0  0  0  0
   -3.7488   -3.1112    1.5813 O   0  0  0  0  0  0  0  0  0  0  0  0
   -3.9515   -1.8698   -1.3665 C   0  0  0  0  0  0  0  0  0  0  0  0
   -5.1175   -1.2515   -1.8217 C   0  0  0  0  0  0  0  0  0  0  0  0
   -6.3708    0.4953   -1.7034 H   0  0  0  0  0  0  0  0  0  0  0  0
   -4.9214    1.6381   -0.0472 H   0  0  0  0  0  0  0  0  0  0  0  0
   -2.8778    0.5631    0.7691 H   0  0  0  0  0  0  0  0  0  0  0  0
    4.0174   -0.1244    2.1025 H   0  0  0  0  0  0  0  0  0  0  0  0
    6.0383    1.1118    2.8143 H   0  0  0  0  0  0  0  0  0  0  0  0
    6.5301    3.3434    1.8502 H   0  0  0  0  0  0  0  0  0  0  0  0
    5.0338    4.3426    0.1963 H   0  0  0  0  0  0  0  0  0  0  0  0
    3.0162    5.2094   -0.6157 H   0  0  0  0  0  0  0  0  0  0  0  0
    2.2085    4.6109   -2.0692 H   0  0  0  0  0  0  0  0  0  0  0  0
    3.9519    4.3665   -1.9125 H   0  0  0  0  0  0  0  0  0  0  0  0
    2.1552    0.3578   -2.8243 H   0  0  0  0  0  0  0  0  0  0  0  0
    2.5937   -1.3248   -2.4389 H   0  0  0  0  0  0  0  0  0  0  0  0
    1.8950   -0.9242   -4.0202 H   0  0  0  0  0  0  0  0  0  0  0  0
   -0.9222    0.1071   -4.2351 H   0  0  0  0  0  0  0  0  0  0  0  0
   -2.0790    0.0100   -2.9039 H   0  0  0  0  0  0  0  0  0  0  0  0
   -0.7993    1.2337   -2.8741 H   0  0  0  0  0  0  0  0  0  0  0  0
   -0.1024   -2.9653   -3.7593 H   0  0  0  0  0  0  0  0  0  0  0  0
    0.2831   -3.4680   -2.1056 H   0  0  0  0  0  0  0  0  0  0  0  0
   -1.3693   -2.9869   -2.5319 H   0  0  0  0  0  0  0  0  0  0  0  0
    0.3426    0.7225    2.4384 H   0  0  0  0  0  0  0  0  0  0  0  0
    0.0335    0.5229    4.8698 H   0  0  0  0  0  0  0  0  0  0  0  0
   -1.3583   -1.2895    5.8349 H   0  0  0  0  0  0  0  0  0  0  0  0
   -2.4618   -2.9500    4.3218 H   0  0  0  0  0  0  0  0  0  0  0  0
   -3.7053   -2.8662   -1.7249 H   0  0  0  0  0  0  0  0  0  0  0  0
   -5.7615   -1.7639   -2.5317 H   0  0  0  0  0  0  0  0  0  0  0  0
  1  2  2  0
  2  3  1  0
  3  4  2  0
  4  5  1  0
  5  6  1  0
  6  7  2  0
  7  8  1  0
  8  9  3  0
  9 10  1  0
 10 11  2  0
 11 12  1  0
 12 13  2  0
 13 14  1  0
 14 15  2  0
 15 16  1  0
 16 17  1  0
  7 18  1  0
 18 19  1  0
 18 20  1  0
 18 21  1  0
  6 22  1  0
 22 23  2  0
 23 24  1  0
 24 25  2  0
 25 26  1  0
 26 27  2  0
 27 28  1  0
 28 29  2  0
 28 30  2  0
  4 31  1  0
 31 32  2  0
 32  1  1  0
 28  5  1  0
 15 10  1  0
 27 22  1  0
  1 33  1  0
  2 34  1  0
  3 35  1  0
 11 36  1  0
 12 37  1  0
 13 38  1  0
 14 39  1  0
 17 40  1  0
 17 41  1  0
 17 42  1  0
 19 43  1  0
 19 44  1  0
 19 45  1  0
 20 46  1  0
 20 47  1  0
 20 48  1  0
 21 49  1  0
 21 50  1  0
 21 51  1  0
 23 52  1  0
 24 53  1  0
 25 54  1  0
 26 55  1  0
 31 56  1  0
 32 57  1  0
M  END
