
 OpenBabel09252516563D

 36 38  0  0  1  0  0  0  0  0999 V2000
    0.9938    0.0874    0.0481 H   0  0  0  0  0  0  0  0  0  0  0  0
    2.0638    0.0874    0.0481 C   0  0  0  0  0  0  0  0  0  0  0  0
    2.5988    0.7624   -0.5868 H   0  0  0  0  0  0  0  0  0  0  0  0
    2.7440   -0.7706    0.8554 C   0  0  0  0  0  0  0  0  0  0  0  0
    2.2090   -1.4456    1.4903 H   0  0  0  0  0  0  0  0  0  0  0  0
    4.2640   -0.7706    0.8554 C   0  0  1  0  0  0  0  0  0  0  0  0
    4.6206   -1.0019   -0.1266 H   0  0  0  0  0  0  0  0  0  0  0  0
    4.7706    0.6016    1.2683 C   0  0  0  0  0  0  0  0  0  0  0  0
    4.4140    0.8329    2.2503 H   0  0  0  0  0  0  0  0  0  0  0  0
    5.8406    0.6016    1.2683 H   0  0  0  0  0  0  0  0  0  0  0  0
    4.4140    1.3364    0.5771 H   0  0  0  0  0  0  0  0  0  0  0  0
    4.7706   -1.8144    1.8373 C   0  0  1  0  0  0  0  0  0  0  0  0
    4.4140   -1.5832    2.8193 H   0  0  0  0  0  0  0  0  0  0  0  0
    4.2806   -3.1416    1.4380 N   0  0  0  0  0  0  0  0  0  0  0  0
    3.0311   -3.3639    1.3710 N   0  0  0  0  0  4  0  0  0  0  0  0
    1.7816   -3.5863    1.3041 N   0  0  0  0  0  0  0  0  0  0  0  0
    6.2906   -1.8144    1.8373 C   0  0  2  0  0  0  0  0  0  0  0  0
    6.1279   -1.6437    0.7936 H   0  0  0  0  0  0  0  0  0  0  0  0
    7.0611   -2.6865    1.2088 C   0  0  1  0  0  0  0  0  0  0  0  0
    6.7485   -2.4906    0.2044 H   0  0  0  0  0  0  0  0  0  0  0  0
    8.4597   -2.2790    1.5021 C   0  0  1  0  0  0  0  0  0  0  0  0
    7.9914   -1.6293    2.2116 H   0  0  0  0  0  0  0  0  0  0  0  0
    8.3707   -1.2052    2.2690 C   0  0  2  0  0  0  0  0  0  0  0  0
    9.1964   -0.6485    2.6603 H   0  0  0  0  0  0  0  0  0  0  0  0
    7.3995   -1.3616    3.4278 C   0  0  0  0  0  0  0  0  0  0  0  0
    6.8995   -2.3045    3.3514 H   0  0  0  0  0  0  0  0  0  0  0  0
    7.9415   -1.3189    4.3494 H   0  0  0  0  0  0  0  0  0  0  0  0
    6.6779   -0.5720    3.4014 H   0  0  0  0  0  0  0  0  0  0  0  0
    7.0729   -0.9290    2.4755 Fe  0  0  0  0  0  0  0  0  0  0  0  0
    6.6943    0.2543    4.1437 C   0  0  0  0  0  0  0  0  0  0  0  0
    6.4727    0.9472    5.1207 O   0  0  0  0  0  0  0  0  0  0  0  0
    8.5276   -0.5910    3.9232 C   0  0  0  0  0  0  0  0  0  0  0  0
    9.3795   -0.3931    4.7711 O   0  0  0  0  0  0  0  0  0  0  0  0
    5.7011   -1.2203    0.9394 C   0  0  0  0  0  0  0  0  0  0  0  0
    4.8977   -1.3910    0.0398 O   0  0  0  0  0  0  0  0  0  0  0  0
    1.1197   -2.8756    1.6159 H   0  0  0  0  0  0  0  0  0  0  0  0
  1  2  1  0  0  0  0
  2  3  1  0  0  0  0
  2  4  2  0  0  0  0
  4  5  1  0  0  0  0
  4  6  1  0  0  0  0
  6  7  1  6  0  0  0
  6  8  1  0  0  0  0
  6 12  1  0  0  0  0
  8  9  1  0  0  0  0
  8 10  1  0  0  0  0
  8 11  1  0  0  0  0
 12 13  1  1  0  0  0
 12 14  1  0  0  0  0
 12 17  1  0  0  0  0
 14 15  2  0  0  0  0
 15 16  2  0  0  0  0
 16 36  1  0  0  0  0
 17 18  1  6  0  0  0
 17 19  2  0  0  0  0
 17 29  1  0  0  0  0
 19 20  1  1  0  0  0
 19 21  1  0  0  0  0
 19 29  1  0  0  0  0
 21 22  1  1  0  0  0
 21 23  2  0  0  0  0
 21 29  1  0  0  0  0
 23 29  1  0  0  0  0
 23 25  1  0  0  0  0
 23 24  1  6  0  0  0
 25 26  1  0  0  0  0
 25 27  1  0  0  0  0
 25 28  1  0  0  0  0
 29 30  1  0  0  0  0
 29 32  1  0  0  0  0
 29 34  1  0  0  0  0
 30 31  3  0  0  0  0
 32 33  3  0  0  0  0
 34 35  3  0  0  0  0
M  END
$$$$
