
 OpenBabel08122501113D

 29 30  0  0  0  0  0  0  0  0999 V2000
    1.0822   -0.0130   -0.0554 Cl  0  0  0  0  0  0  0  0  0  0  0  0
    3.4622   -0.0130   -0.0554 Au  0  0  0  0  0  0  0  0  0  0  0  0
    5.3596   -0.0130   -0.0554 C   0  0  0  0  0  0  0  0  0  0  0  0
    6.0946   -0.2056    1.2030 N   0  0  0  0  0  0  0  0  0  0  0  0
    5.8027   -1.2145    2.2380 C   0  0  0  0  0  0  0  0  0  0  0  0
    6.0814   -0.4515    3.5033 C   0  0  0  0  0  0  0  0  0  0  0  0
    7.4068    0.2995    3.1744 C   0  0  0  0  0  0  0  0  0  0  0  0
    7.2749    0.6093    1.6810 C   0  0  0  0  0  0  0  0  0  0  0  0
    6.0946    0.1796   -1.3138 N   0  0  0  0  0  0  0  0  0  0  0  0
    5.8033    1.1882   -2.3493 C   0  0  0  0  0  0  0  0  0  0  0  0
    6.1238    0.4384   -3.6126 C   0  0  0  0  0  0  0  0  0  0  0  0
    7.4573   -0.2872   -3.2604 C   0  0  0  0  0  0  0  0  0  0  0  0
    7.3011   -0.6082   -1.7716 C   0  0  0  0  0  0  0  0  0  0  0  0
    6.3760   -2.1126    2.1398 H   0  0  0  0  0  0  0  0  0  0  0  0
    4.7825   -1.5340    2.1931 H   0  0  0  0  0  0  0  0  0  0  0  0
    5.2839    0.2038    3.7851 H   0  0  0  0  0  0  0  0  0  0  0  0
    6.2111   -1.1156    4.3322 H   0  0  0  0  0  0  0  0  0  0  0  0
    7.5515    1.1749    3.7725 H   0  0  0  0  0  0  0  0  0  0  0  0
    8.2568   -0.3224    3.3633 H   0  0  0  0  0  0  0  0  0  0  0  0
    7.1339    1.6550    1.5031 H   0  0  0  0  0  0  0  0  0  0  0  0
    8.1638    0.3218    1.1594 H   0  0  0  0  0  0  0  0  0  0  0  0
    6.3559    2.0973   -2.2345 H   0  0  0  0  0  0  0  0  0  0  0  0
    4.7760    1.4864   -2.3238 H   0  0  0  0  0  0  0  0  0  0  0  0
    5.3459   -0.2316   -3.9144 H   0  0  0  0  0  0  0  0  0  0  0  0
    6.2567    1.1097   -4.4352 H   0  0  0  0  0  0  0  0  0  0  0  0
    7.6323   -1.1560   -3.8599 H   0  0  0  0  0  0  0  0  0  0  0  0
    8.2980    0.3531   -3.4282 H   0  0  0  0  0  0  0  0  0  0  0  0
    7.1780   -1.6575   -1.6023 H   0  0  0  0  0  0  0  0  0  0  0  0
    8.1729   -0.3055   -1.2302 H   0  0  0  0  0  0  0  0  0  0  0  0
  1  2  1  0  0  0  0
  2  3  2  0  0  0  0
  3  4  1  0  0  0  0
  3  9  1  0  0  0  0
  4  5  1  0  0  0  0
  4  8  1  0  0  0  0
  5  6  1  0  0  0  0
  5 14  1  0  0  0  0
  5 15  1  0  0  0  0
  6  7  1  0  0  0  0
  6 16  1  0  0  0  0
  6 17  1  0  0  0  0
  7  8  1  0  0  0  0
  7 18  1  0  0  0  0
  7 19  1  0  0  0  0
  8 20  1  0  0  0  0
  8 21  1  0  0  0  0
  9 10  1  0  0  0  0
  9 13  1  0  0  0  0
 10 11  1  0  0  0  0
 10 22  1  0  0  0  0
 10 23  1  0  0  0  0
 11 12  1  0  0  0  0
 11 24  1  0  0  0  0
 11 25  1  0  0  0  0
 12 13  1  0  0  0  0
 12 26  1  0  0  0  0
 12 27  1  0  0  0  0
 13 28  1  0  0  0  0
 13 29  1  0  0  0  0
M  END
$$$$
