
 OpenBabel09252514253D

 35 38  0  0  0  0  0  0  0  0999 V2000
    1.0057   -0.4290    0.0536 F   0  0  0  0  0  0  0  0  0  0  0  0
    2.3547   -0.2518    0.0841 C   0  0  0  0  0  0  0  0  0  0  0  0
    2.8375   -1.2063    0.9282 F   0  0  0  0  0  0  0  0  0  0  0  0
    2.8042   -0.5935   -1.1563 F   0  0  0  0  0  0  0  0  0  0  0  0
    2.7570    1.1498    0.4673 C   0  0  0  0  0  0  0  0  0  0  0  0
    3.6715    1.3964    1.4987 C   0  0  0  0  0  0  0  0  0  0  0  0
    4.0685    2.7023    1.7905 C   0  0  0  0  0  0  0  0  0  0  0  0
    3.5633    3.7752    1.0513 C   0  0  0  0  0  0  0  0  0  0  0  0
    2.6148    3.5513    0.0530 C   0  0  0  0  0  0  0  0  0  0  0  0
    2.2227    2.2401   -0.2363 C   0  0  0  0  0  0  0  0  0  0  0  0
    2.0138    4.6362   -0.6357 N   0  0  0  0  0  0  0  0  0  0  0  0
    3.0896    5.9431   -1.1166 C   0  0  0  0  0  0  0  0  0  0  0  0
    2.2954    7.1528   -2.0971 C   0  0  0  0  0  0  0  0  0  0  0  0
    2.2809    8.7374   -1.3179 Cl  0  0  0  0  0  0  0  0  0  0  0  0
    1.8988    7.2970   -3.4831 O   0  0  0  0  0  0  0  0  0  0  0  0
    0.8610    6.3164   -3.8349 C   0  0  0  0  0  0  0  0  0  0  0  0
    0.5732    6.1735   -5.7130 Br  0  0  0  0  0  0  0  0  0  0  0  0
   -0.5126    6.3419   -3.0685 C   0  0  0  0  0  0  0  0  0  0  0  0
   -0.1824    5.9979   -1.6089 C   0  0  0  0  0  0  0  0  0  0  0  0
    1.1967    6.3215   -1.7630 C   0  0  0  0  0  0  0  0  0  0  0  0
    1.4230    5.1932   -3.0737 C   0  0  0  0  0  0  0  0  0  0  0  0
    3.2764    4.4615   -3.9550 I   0  0  0  0  0  0  0  0  0  0  0  0
    0.4431    4.6240   -0.8393 C   0  0  0  0  0  0  0  0  0  0  0  0
   -0.2934    3.7082   -0.4943 O   0  0  0  0  0  0  0  0  0  0  0  0
    4.0763    0.5714    2.0832 H   0  0  0  0  0  0  0  0  0  0  0  0
    4.7603    2.8864    2.6095 H   0  0  0  0  0  0  0  0  0  0  0  0
    3.8616    4.7803    1.3316 H   0  0  0  0  0  0  0  0  0  0  0  0
    1.5079    2.0473   -1.0357 H   0  0  0  0  0  0  0  0  0  0  0  0
    3.3646    6.4094   -0.1605 H   0  0  0  0  0  0  0  0  0  0  0  0
    3.9923    5.5153   -1.5510 H   0  0  0  0  0  0  0  0  0  0  0  0
   -1.2308    5.6110   -3.4608 H   0  0  0  0  0  0  0  0  0  0  0  0
   -0.9554    7.3427   -3.1320 H   0  0  0  0  0  0  0  0  0  0  0  0
   -0.7507    6.5917   -0.8860 H   0  0  0  0  0  0  0  0  0  0  0  0
    1.2685    6.4881   -0.6569 H   0  0  0  0  0  0  0  0  0  0  0  0
    0.7541    4.3188   -3.0863 H   0  0  0  0  0  0  0  0  0  0  0  0
  1  2  1  0  0  0  0
  2  3  1  0  0  0  0
  2  4  1  0  0  0  0
  2  5  1  0  0  0  0
  5  6  1  0  0  0  0
  5 10  2  0  0  0  0
  6  7  2  0  0  0  0
  6 25  1  0  0  0  0
  7  8  1  0  0  0  0
  7 26  1  0  0  0  0
  8  9  2  0  0  0  0
  8 27  1  0  0  0  0
  9 10  1  0  0  0  0
  9 11  1  0  0  0  0
 10 28  1  0  0  0  0
 11 12  1  0  0  0  0
 11 23  1  0  0  0  0
 12 13  1  0  0  0  0
 12 29  1  0  0  0  0
 12 30  1  0  0  0  0
 13 14  1  0  0  0  0
 13 15  1  0  0  0  0
 13 20  1  0  0  0  0
 15 16  1  0  0  0  0
 16 17  1  0  0  0  0
 16 18  1  0  0  0  0
 16 21  1  0  0  0  0
 18 19  1  0  0  0  0
 18 31  1  0  0  0  0
 18 32  1  0  0  0  0
 19 20  1  0  0  0  0
 19 23  1  0  0  0  0
 19 33  1  0  0  0  0
 20 21  1  0  0  0  0
 20 34  1  0  0  0  0
 21 22  1  0  0  0  0
 21 35  1  0  0  0  0
 23 24  2  0  0  0  0
M  END
$$$$
