
     RDKit          3D

 35 38  0  0  0  0  0  0  0  0999 V2000
   -4.1978    2.7113   -1.2685 F   0  0  0  0  0  0  0  0  0  0  0  0
   -4.6488    1.4267   -1.3117 C   0  0  0  0  0  0  0  0  0  0  0  0
   -4.7193    1.0939   -2.6292 F   0  0  0  0  0  0  0  0  0  0  0  0
   -5.9383    1.4761   -0.8709 F   0  0  0  0  0  0  0  0  0  0  0  0
   -3.7883    0.4735   -0.5184 C   0  0  0  0  0  0  0  0  0  0  0  0
   -4.3632   -0.5486    0.2412 C   0  0  0  0  0  0  0  0  0  0  0  0
   -3.5507   -1.4158    0.9610 C   0  0  0  0  0  0  0  0  0  0  0  0
   -2.1583   -1.2770    0.9178 C   0  0  0  0  0  0  0  0  0  0  0  0
   -1.5360   -0.2783    0.1466 C   0  0  0  0  0  0  0  0  0  0  0  0
   -2.3835    0.5934   -0.5574 C   0  0  0  0  0  0  0  0  0  0  0  0
   -0.0890   -0.1411    0.1188 N   0  0  0  0  0  0  0  0  0  0  0  0
    0.6583   -0.8211    1.1931 C   0  0  0  0  0  0  0  0  0  0  0  0
    2.1649   -0.5607    1.2925 C   0  0  0  0  0  0  0  0  0  0  0  0
    2.6728   -0.7373    3.0041 Cl  0  0  0  0  0  0  0  0  0  0  0  0
    2.9029   -1.5429    0.5220 O   0  0  0  0  0  0  0  0  0  0  0  0
    3.7627   -0.7727   -0.3604 C   0  0  0  0  0  0  0  0  0  0  0  0
    5.2383   -1.8235   -0.9537 Br  0  0  0  0  0  0  0  0  0  0  0  0
    2.8495   -0.2897   -1.4807 C   0  0  0  0  0  0  0  0  0  0  0  0
    2.0495    0.8012   -0.7430 C   0  0  0  0  0  0  0  0  0  0  0  0
    2.6216    0.7652    0.6894 C   0  0  0  0  0  0  0  0  0  0  0  0
    4.1087    0.4587    0.4677 C   0  0  0  0  0  0  0  0  0  0  0  0
    5.2315    2.0108   -0.4061 I   0  0  0  0  0  0  0  0  0  0  0  0
    0.5577    0.5840   -0.8791 C   0  0  0  0  0  0  0  0  0  0  0  0
    0.0268    1.0110   -1.9054 O   0  0  0  0  0  0  0  0  0  0  0  0
   -5.4448   -0.6691    0.2784 H   0  0  0  0  0  0  0  0  0  0  0  0
   -3.9974   -2.2098    1.5557 H   0  0  0  0  0  0  0  0  0  0  0  0
   -1.5879   -2.0004    1.4924 H   0  0  0  0  0  0  0  0  0  0  0  0
   -1.9834    1.4205   -1.1397 H   0  0  0  0  0  0  0  0  0  0  0  0
    0.1791   -0.4981    2.1266 H   0  0  0  0  0  0  0  0  0  0  0  0
    0.5080   -1.9001    1.0657 H   0  0  0  0  0  0  0  0  0  0  0  0
    3.3989    0.1391   -2.3260 H   0  0  0  0  0  0  0  0  0  0  0  0
    2.2077   -1.0911   -1.8654 H   0  0  0  0  0  0  0  0  0  0  0  0
    2.2546    1.7824   -1.1901 H   0  0  0  0  0  0  0  0  0  0  0  0
    2.3798    1.6500    1.2838 H   0  0  0  0  0  0  0  0  0  0  0  0
    4.6132    0.1797    1.3996 H   0  0  0  0  0  0  0  0  0  0  0  0
  1  2  1  0
  2  3  1  0
  2  4  1  0
  2  5  1  0
  5  6  2  0
  6  7  1  0
  7  8  2  0
  8  9  1  0
  9 10  2  0
  9 11  1  0
 11 12  1  0
 12 13  1  0
 13 14  1  0
 13 15  1  0
 15 16  1  0
 16 17  1  0
 16 18  1  0
 18 19  1  0
 19 20  1  0
 20 21  1  0
 21 22  1  0
 19 23  1  0
 23 24  2  0
 10  5  1  0
 23 11  1  0
 20 13  1  0
 21 16  1  0
  6 25  1  0
  7 26  1  0
  8 27  1  0
 10 28  1  0
 12 29  1  0
 12 30  1  0
 18 31  1  0
 18 32  1  0
 19 33  1  0
 20 34  1  0
 21 35  1  0
M  END
