
 OpenBabel09252518243D

 43 45  0  0  0  0  0  0  0  0999 V2000
    0.9402    0.0088   -0.0797 C   0  0  0  0  0  0  0  0  0  0  0  0
    0.4335    1.2983    0.5455 C   0  0  0  0  0  0  0  0  0  0  0  0
    0.9235    2.4454   -0.2323 N   0  0  0  0  0  4  0  0  0  0  0  0
    0.2335    2.3047   -2.1788 Pt  0  0  0  0  0  0  0  0  0  0  0  0
   -0.2618    0.8906   -2.3844 N   0  0  0  0  0  4  0  0  0  0  0  0
   -2.0093    1.2104   -2.8433 C   0  0  0  0  0  0  0  0  0  0  0  0
   -2.4729    0.6263   -4.1677 C   0  0  0  0  0  0  0  0  0  0  0  0
   -1.9616    2.9875   -2.7418 C   0  0  0  0  0  0  0  0  0  0  0  0
   -2.8692    3.8793   -2.9441 C   0  0  0  0  0  0  0  0  0  0  0  0
   -2.5786    5.2421   -2.7904 C   0  0  0  0  0  0  0  0  0  0  0  0
   -1.2749    5.6151   -2.4242 C   0  0  0  0  0  0  0  0  0  0  0  0
   -0.3431    4.6843   -2.2174 C   0  0  0  0  0  0  0  0  0  0  0  0
   -0.6472    3.3002   -2.3685 C   0  0  0  0  0  0  0  0  0  0  0  0
    1.6696    2.5820   -3.6436 N   0  0  0  0  0  0  0  0  0  0  0  0
    1.3352    2.5128   -4.9141 C   0  0  0  0  0  0  0  0  0  0  0  0
    1.0122    2.4460   -6.1415 O   0  0  0  0  0  0  0  0  0  0  0  0
   -1.0865    1.2983    0.5455 C   0  0  0  0  0  0  0  0  0  0  0  0
   -1.8102    0.0756    0.6187 C   0  0  0  0  0  0  0  0  0  0  0  0
   -3.1825    0.0682    0.3199 C   0  0  0  0  0  0  0  0  0  0  0  0
   -3.8387    1.1888    0.2476 C   0  0  0  0  0  0  0  0  0  0  0  0
   -3.1807    2.4043    0.4780 C   0  0  0  0  0  0  0  0  0  0  0  0
   -1.7651    2.4448    0.4768 C   0  0  0  0  0  0  0  0  0  0  0  0
    0.5835   -0.0640   -1.0858 H   0  0  0  0  0  0  0  0  0  0  0  0
    0.5835   -0.8262    0.4864 H   0  0  0  0  0  0  0  0  0  0  0  0
    2.0102    0.0088   -0.0797 H   0  0  0  0  0  0  0  0  0  0  0  0
    0.7902    1.3710    1.5517 H   0  0  0  0  0  0  0  0  0  0  0  0
    0.5835    3.3108    0.1873 H   0  0  0  0  0  0  0  0  0  0  0  0
    1.9435    2.4454   -0.2323 H   0  0  0  0  0  0  0  0  0  0  0  0
    0.2657    0.3515   -3.0710 H   0  0  0  0  0  0  0  0  0  0  0  0
   -0.1921    0.3393   -1.5290 H   0  0  0  0  0  0  0  0  0  0  0  0
   -2.6978    0.7818   -2.1453 H   0  0  0  0  0  0  0  0  0  0  0  0
   -2.4117   -0.4412   -4.1276 H   0  0  0  0  0  0  0  0  0  0  0  0
   -3.4855    0.9188   -4.3517 H   0  0  0  0  0  0  0  0  0  0  0  0
   -1.8477    0.9900   -4.9563 H   0  0  0  0  0  0  0  0  0  0  0  0
   -3.8543    3.5768   -3.2322 H   0  0  0  0  0  0  0  0  0  0  0  0
   -3.3343    5.9829   -2.9487 H   0  0  0  0  0  0  0  0  0  0  0  0
   -1.0286    6.6502   -2.3109 H   0  0  0  0  0  0  0  0  0  0  0  0
    0.6455    4.9801   -1.9343 H   0  0  0  0  0  0  0  0  0  0  0  0
   -1.3137   -0.8299    0.8988 H   0  0  0  0  0  0  0  0  0  0  0  0
   -3.6883   -0.8596    0.1516 H   0  0  0  0  0  0  0  0  0  0  0  0
   -4.8824    1.1826    0.0118 H   0  0  0  0  0  0  0  0  0  0  0  0
   -3.7444    3.2965    0.6538 H   0  0  0  0  0  0  0  0  0  0  0  0
   -1.2482    3.3800    0.4218 H   0  0  0  0  0  0  0  0  0  0  0  0
  1  2  1  0  0  0  0
  1 23  1  0  0  0  0
  1 24  1  0  0  0  0
  1 25  1  0  0  0  0
  2  3  1  0  0  0  0
  2 17  1  0  0  0  0
  2 26  1  0  0  0  0
  3  4  1  0  0  0  0
  3 27  1  0  0  0  0
  3 28  1  0  0  0  0
  4  5  1  0  0  0  0
  4 13  1  0  0  0  0
  4 14  1  0  0  0  0
  5  6  1  0  0  0  0
  5 29  1  0  0  0  0
  5 30  1  0  0  0  0
  6  7  1  0  0  0  0
  6  8  1  0  0  0  0
  6 31  1  0  0  0  0
  7 32  1  0  0  0  0
  7 33  1  0  0  0  0
  7 34  1  0  0  0  0
  8  9  1  0  0  0  0
  8 13  2  0  0  0  0
  9 10  2  0  0  0  0
  9 35  1  0  0  0  0
 10 11  1  0  0  0  0
 10 36  1  0  0  0  0
 11 12  2  0  0  0  0
 11 37  1  0  0  0  0
 12 13  1  0  0  0  0
 12 38  1  0  0  0  0
 14 15  2  0  0  0  0
 15 16  2  0  0  0  0
 17 18  1  0  0  0  0
 17 22  2  0  0  0  0
 18 19  2  0  0  0  0
 18 39  1  0  0  0  0
 19 20  1  0  0  0  0
 19 40  1  0  0  0  0
 20 21  2  0  0  0  0
 20 41  1  0  0  0  0
 21 22  1  0  0  0  0
 21 42  1  0  0  0  0
 22 43  1  0  0  0  0
M  END
$$$$
