
 OpenBabel09252518343D

114121  0  0  0  0  0  0  0  0999 V2000
    1.0535    0.0589   -0.0606 H   0  0  0  0  0  0  0  0  0  0  0  0
    2.1235    0.0589   -0.0606 C   0  0  0  0  0  3  0  0  0  0  0  0
    2.6357   -1.3240   -0.4697 C   0  0  0  0  0  3  0  0  0  0  0  0
    2.2466   -2.0614    0.2009 H   0  0  0  0  0  0  0  0  0  0  0  0
    2.2055   -1.6161   -1.8009 C   0  0  0  0  0  3  0  0  0  0  0  0
    2.6889   -3.0108   -2.1637 C   0  0  0  0  0  0  0  0  0  0  0  0
    3.7569   -3.0439   -2.1078 H   0  0  0  0  0  0  0  0  0  0  0  0
    2.0992   -4.0201   -1.1921 C   0  0  0  0  0  0  0  0  0  0  0  0
    1.0312   -3.9871   -1.2480 H   0  0  0  0  0  0  0  0  0  0  0  0
    2.4395   -5.0019   -1.4475 H   0  0  0  0  0  0  0  0  0  0  0  0
    2.4118   -3.7819   -0.1969 H   0  0  0  0  0  0  0  0  0  0  0  0
    2.2448   -3.3492   -3.5774 C   0  0  0  0  0  0  0  0  0  0  0  0
    1.1768   -3.3162   -3.6333 H   0  0  0  0  0  0  0  0  0  0  0  0
    2.6599   -2.6387   -4.2614 H   0  0  0  0  0  0  0  0  0  0  0  0
    2.5851   -4.3310   -3.8328 H   0  0  0  0  0  0  0  0  0  0  0  0
    2.6929   -0.7021   -2.7850 C   0  0  0  0  0  3  0  0  0  0  0  0
    4.1629   -0.7055   -2.7716 N   0  0  0  0  0  0  0  0  0  0  0  0
    5.1112   -1.0598   -3.9003 C   0  0  0  0  0  0  0  0  0  0  0  0
    6.2984   -0.6721   -3.6443 C   0  0  0  0  0  0  0  0  0  0  0  0
    7.4758   -0.8848   -4.5818 C   0  0  0  0  0  3  0  0  0  0  0  0
    8.0678    0.4695   -4.9792 C   0  0  0  0  0  3  0  0  0  0  0  0
    7.3066    1.0744   -5.4259 H   0  0  0  0  0  0  0  0  0  0  0  0
    8.5768    1.1259   -3.8162 C   0  0  0  0  0  3  0  0  0  0  0  0
    8.9567    2.0823   -4.1093 H   0  0  0  0  0  0  0  0  0  0  0  0
    9.6221    0.4116   -3.1540 C   0  0  0  0  0  3  0  0  0  0  0  0
   10.4363    0.2611   -3.8318 H   0  0  0  0  0  0  0  0  0  0  0  0
    9.0929   -0.9450   -2.6828 C   0  0  0  0  0  3  0  0  0  0  0  0
   10.2186   -1.7316   -2.0312 C   0  0  0  0  0  3  0  0  0  0  0  0
   10.5958   -1.1857   -1.1918 H   0  0  0  0  0  0  0  0  0  0  0  0
    9.6911   -3.0784   -1.5639 C   0  0  0  0  0  3  0  0  0  0  0  0
    9.3138   -3.6244   -2.4033 H   0  0  0  0  0  0  0  0  0  0  0  0
   10.8167   -3.8650   -0.9123 C   0  0  0  0  0  3  0  0  0  0  0  0
   10.4454   -4.8131   -0.5834 H   0  0  0  0  0  0  0  0  0  0  0  0
    9.6903   -1.9963   -4.8636 C   0  0  0  0  0  3  0  0  0  0  0  0
    8.5564   -1.7217   -3.8893 C   0  0  0  0  0  3  0  0  0  0  0  0
    6.4034    0.0035   -2.3420 N   0  0  0  0  0  0  0  0  0  0  0  0
    7.5103    0.8355   -1.8486 C   0  0  0  0  0  3  0  0  0  0  0  0
    6.6292    2.0238   -1.4563 C   0  0  0  0  0  3  0  0  0  0  0  0
    6.0440    2.6560   -2.7086 C   0  0  0  0  0  0  0  0  0  0  0  0
    5.4548    1.9320   -3.2317 H   0  0  0  0  0  0  0  0  0  0  0  0
    5.1685    3.8358   -2.3189 C   0  0  0  0  0  0  0  0  0  0  0  0
    5.7578    4.5598   -1.7959 H   0  0  0  0  0  0  0  0  0  0  0  0
    4.7566    4.2808   -3.2004 H   0  0  0  0  0  0  0  0  0  0  0  0
    4.3749    3.4974   -1.6860 H   0  0  0  0  0  0  0  0  0  0  0  0
    7.1713    3.1368   -3.6077 C   0  0  0  0  0  0  0  0  0  0  0  0
    7.7606    3.8607   -3.0847 H   0  0  0  0  0  0  0  0  0  0  0  0
    7.7876    2.3062   -3.8821 H   0  0  0  0  0  0  0  0  0  0  0  0
    6.7594    3.5818   -4.4893 H   0  0  0  0  0  0  0  0  0  0  0  0
    5.5693    1.5717   -0.6109 C   0  0  0  0  0  3  0  0  0  0  0  0
    4.9476    2.4097   -0.3740 H   0  0  0  0  0  0  0  0  0  0  0  0
    6.0112    0.9807    0.6126 C   0  0  0  0  0  3  0  0  0  0  0  0
    6.5926    1.6911    1.1624 H   0  0  0  0  0  0  0  0  0  0  0  0
    6.8674   -0.2498    0.3040 C   0  0  0  0  0  3  0  0  0  0  0  0
    7.2340   -0.6692    1.2176 H   0  0  0  0  0  0  0  0  0  0  0  0
    8.0478    0.1678   -0.5785 C   0  0  0  0  0  3  0  0  0  0  0  0
    8.9283    1.1484    0.1789 C   0  0  0  0  0  0  0  0  0  0  0  0
    8.3557    2.0137    0.4400 H   0  0  0  0  0  0  0  0  0  0  0  0
    9.4519    0.4869    1.4433 C   0  0  0  0  0  0  0  0  0  0  0  0
   10.0245   -0.3785    1.1822 H   0  0  0  0  0  0  0  0  0  0  0  0
   10.0717    1.1771    1.9765 H   0  0  0  0  0  0  0  0  0  0  0  0
    8.6281    0.1964    2.0613 H   0  0  0  0  0  0  0  0  0  0  0  0
   10.0985    1.5610   -0.6989 C   0  0  0  0  0  0  0  0  0  0  0  0
   10.6711    0.6957   -0.9600 H   0  0  0  0  0  0  0  0  0  0  0  0
    9.7299    2.0267   -1.5890 H   0  0  0  0  0  0  0  0  0  0  0  0
   10.7183    2.2513   -0.1657 H   0  0  0  0  0  0  0  0  0  0  0  0
    5.1029   -0.3523   -1.6137 Eu  0  0  0  0  0  0  0  0  0  0  0  0
    6.7341   -0.5385   -3.7446 N   0  0  0  0  0  0  0  0  0  0  0  0
    7.6771    0.3597   -3.9317 C   0  0  0  0  0  0  0  0  0  0  0  0
    8.8381    1.4657   -4.1620 S   0  0  0  0  0  0  0  0  0  0  0  0
    4.5716    0.8271   -0.7886 O   0  0  0  0  0  0  0  0  0  0  0  0
    4.9007    2.0688   -1.3938 C   0  0  0  0  0  0  0  0  0  0  0  0
    5.9643    2.1578   -1.4697 H   0  0  0  0  0  0  0  0  0  0  0  0
    4.4683    2.1148   -2.3715 H   0  0  0  0  0  0  0  0  0  0  0  0
    4.5175    2.8695   -0.7964 H   0  0  0  0  0  0  0  0  0  0  0  0
    5.3165    0.6436    0.5616 C   0  0  0  0  0  0  0  0  0  0  0  0
    4.8161    1.1226    1.3772 H   0  0  0  0  0  0  0  0  0  0  0  0
    6.2937    1.0775    0.5192 H   0  0  0  0  0  0  0  0  0  0  0  0
    5.4028   -0.8877    0.7335 C   0  0  0  0  0  0  0  0  0  0  0  0
    6.3264   -1.1700    1.1941 H   0  0  0  0  0  0  0  0  0  0  0  0
    4.6064   -1.2332    1.3590 H   0  0  0  0  0  0  0  0  0  0  0  0
    5.2790   -1.4945   -0.6525 O   0  0  0  0  0  0  0  0  0  0  0  0
    4.1534   -2.3584   -0.7088 C   0  0  0  0  0  0  0  0  0  0  0  0
    3.2712   -1.8124   -0.4471 H   0  0  0  0  0  0  0  0  0  0  0  0
    4.0513   -2.7470   -1.7005 H   0  0  0  0  0  0  0  0  0  0  0  0
    4.2895   -3.1669   -0.0212 H   0  0  0  0  0  0  0  0  0  0  0  0
    3.2444   -2.2059   -1.3313 O   0  0  0  0  0  0  0  0  0  0  0  0
    3.4640   -3.2440   -2.2749 C   0  0  0  0  0  0  0  0  0  0  0  0
    4.4282   -3.6777   -2.1101 H   0  0  0  0  0  0  0  0  0  0  0  0
    2.7108   -3.9953   -2.1605 H   0  0  0  0  0  0  0  0  0  0  0  0
    3.4186   -2.8414   -3.2652 H   0  0  0  0  0  0  0  0  0  0  0  0
    3.3047   -2.7403   -0.0171 C   0  0  0  0  0  0  0  0  0  0  0  0
    4.2689   -3.1740    0.1477 H   0  0  0  0  0  0  0  0  0  0  0  0
    3.1392   -1.9580    0.6940 H   0  0  0  0  0  0  0  0  0  0  0  0
    2.2346   -3.8075    0.1455 C   0  0  0  0  0  0  0  0  0  0  0  0
    2.4001   -4.5898   -0.5655 H   0  0  0  0  0  0  0  0  0  0  0  0
    2.2801   -4.2102    1.1358 H   0  0  0  0  0  0  0  0  0  0  0  0
    5.7548   -1.4765    0.6843 O   0  0  0  0  0  0  0  0  0  0  0  0
    4.7315   -1.2320    1.6380 C   0  0  0  0  0  0  0  0  0  0  0  0
    4.6178   -0.1772    1.7766 H   0  0  0  0  0  0  0  0  0  0  0  0
    3.8100   -1.6470    1.2866 H   0  0  0  0  0  0  0  0  0  0  0  0
    4.9957   -1.6877    2.5694 H   0  0  0  0  0  0  0  0  0  0  0  0
    2.1830    0.7060   -2.4695 C   0  0  0  0  0  3  0  0  0  0  0  0
    2.7488    1.6902   -3.4802 C   0  0  0  0  0  0  0  0  0  0  0  0
    3.8175    1.6790   -3.4292 H   0  0  0  0  0  0  0  0  0  0  0  0
    2.3040    1.2928   -4.8782 C   0  0  0  0  0  0  0  0  0  0  0  0
    1.2352    1.3041   -4.9291 H   0  0  0  0  0  0  0  0  0  0  0  0
    2.7023    1.9857   -5.5897 H   0  0  0  0  0  0  0  0  0  0  0  0
    2.6613    0.3089   -5.1000 H   0  0  0  0  0  0  0  0  0  0  0  0
    2.2412    3.0879   -3.1651 C   0  0  0  0  0  0  0  0  0  0  0  0
    1.1725    3.0992   -3.2161 H   0  0  0  0  0  0  0  0  0  0  0  0
    2.5544    3.3677   -2.1810 H   0  0  0  0  0  0  0  0  0  0  0  0
    2.6395    3.7808   -3.8766 H   0  0  0  0  0  0  0  0  0  0  0  0
    2.6363    1.1006   -1.0604 C   0  0  0  0  0  3  0  0  0  0  0  0
    3.7051    1.1364   -1.0244 H   0  0  0  0  0  0  0  0  0  0  0  0
  1  2  1  0  0  0  0
  2  3  1  0  0  0  0
  2113  1  0  0  0  0
  3  4  1  0  0  0  0
  3  5  1  0  0  0  0
  5  6  1  0  0  0  0
  5 16  1  0  0  0  0
  6  7  1  0  0  0  0
  6  8  1  0  0  0  0
  6 12  1  0  0  0  0
  8  9  1  0  0  0  0
  8 10  1  0  0  0  0
  8 11  1  0  0  0  0
 12 13  1  0  0  0  0
 12 14  1  0  0  0  0
 12 15  1  0  0  0  0
 16 17  1  0  0  0  0
 16102  1  0  0  0  0
 17 18  1  0  0  0  0
 17 66  1  0  0  0  0
 18 19  2  0  0  0  0
 18 34  1  0  0  0  0
 19 20  1  0  0  0  0
 19 36  1  0  0  0  0
 20 21  1  0  0  0  0
 20 35  1  0  0  0  0
 21 22  1  0  0  0  0
 21 23  1  0  0  0  0
 23 24  1  0  0  0  0
 23 25  1  0  0  0  0
 25 26  1  0  0  0  0
 25 27  1  0  0  0  0
 27 28  1  0  0  0  0
 27 35  1  0  0  0  0
 28 29  1  0  0  0  0
 28 30  1  0  0  0  0
 30 31  1  0  0  0  0
 30 32  1  0  0  0  0
 32 33  1  0  0  0  0
 32 34  1  0  0  0  0
 34 35  1  0  0  0  0
 36 37  1  0  0  0  0
 36 66  1  0  0  0  0
 37 38  1  0  0  0  0
 37 55  1  0  0  0  0
 38 39  1  0  0  0  0
 38 49  1  0  0  0  0
 39 40  1  0  0  0  0
 39 41  1  0  0  0  0
 39 45  1  0  0  0  0
 41 42  1  0  0  0  0
 41 43  1  0  0  0  0
 41 44  1  0  0  0  0
 45 46  1  0  0  0  0
 45 47  1  0  0  0  0
 45 48  1  0  0  0  0
 49 50  1  0  0  0  0
 49 51  1  0  0  0  0
 51 52  1  0  0  0  0
 51 53  1  0  0  0  0
 53 54  1  0  0  0  0
 53 55  1  0  0  0  0
 55 56  1  0  0  0  0
 56 57  1  0  0  0  0
 56 58  1  0  0  0  0
 56 62  1  0  0  0  0
 58 59  1  0  0  0  0
 58 60  1  0  0  0  0
 58 61  1  0  0  0  0
 62 63  1  0  0  0  0
 62 64  1  0  0  0  0
 62 65  1  0  0  0  0
 66 67  1  0  0  0  0
 66 70  1  0  0  0  0
 66 81  1  0  0  0  0
 66 86  1  0  0  0  0
 66 97  1  0  0  0  0
 67 68  2  0  0  0  0
 68 69  2  0  0  0  0
 70 71  1  0  0  0  0
 70 75  1  0  0  0  0
 71 72  1  0  0  0  0
 71 73  1  0  0  0  0
 71 74  1  0  0  0  0
 75 76  1  0  0  0  0
 75 77  1  0  0  0  0
 75 78  1  0  0  0  0
 78 79  1  0  0  0  0
 78 80  1  0  0  0  0
 78 81  1  0  0  0  0
 81 82  1  0  0  0  0
 82 83  1  0  0  0  0
 82 84  1  0  0  0  0
 82 85  1  0  0  0  0
 86 87  1  0  0  0  0
 86 91  1  0  0  0  0
 87 88  1  0  0  0  0
 87 89  1  0  0  0  0
 87 90  1  0  0  0  0
 91 92  1  0  0  0  0
 91 93  1  0  0  0  0
 91 94  1  0  0  0  0
 94 95  1  0  0  0  0
 94 96  1  0  0  0  0
 94 97  1  0  0  0  0
 97 98  1  0  0  0  0
 98 99  1  0  0  0  0
 98100  1  0  0  0  0
 98101  1  0  0  0  0
102103  1  0  0  0  0
102113  1  0  0  0  0
103104  1  0  0  0  0
103105  1  0  0  0  0
103109  1  0  0  0  0
105106  1  0  0  0  0
105107  1  0  0  0  0
105108  1  0  0  0  0
109110  1  0  0  0  0
109111  1  0  0  0  0
109112  1  0  0  0  0
113114  1  0  0  0  0
M  END
$$$$
