
 OpenBabel09252518523D

 53 52  0  0  0  0  0  0  0  0999 V2000
    1.0847    0.0326   -0.0420 C   0  0  0  0  0  0  0  0  0  0  0  0
    0.3580    0.6323   -2.0079 Rh  0  0  0  0  0  0  0  0  0  0  0  0
    2.6524   -0.4749   -3.1937 I   0  0  0  0  0  0  0  0  0  0  0  0
   -0.9666   -1.8320   -2.2699 I   0  0  0  0  0  0  0  0  0  0  0  0
   -0.3686    1.2319   -3.9738 C   0  0  0  0  0  0  0  0  0  0  0  0
   -0.7747    1.5670   -5.0722 O   0  0  0  0  0  0  0  0  0  0  0  0
   -1.6750    1.6134   -0.9571 P   0  0  0  0  0  4  0  0  0  0  0  0
   -1.2684    2.1993    0.7282 C   0  0  0  0  0  0  0  0  0  0  0  0
   -0.1791    3.2564    0.6480 C   0  0  0  0  0  0  0  0  0  0  0  0
   -2.2645    3.0213   -1.9667 C   0  0  0  0  0  0  0  0  0  0  0  0
   -2.6023    2.5347   -3.3665 C   0  0  0  0  0  0  0  0  0  0  0  0
   -2.9864    0.3407   -0.8606 C   0  0  0  0  0  0  0  0  0  0  0  0
   -3.3242   -0.1460   -2.2604 C   0  0  0  0  0  0  0  0  0  0  0  0
    1.5318    2.8159   -1.7757 P   0  0  0  0  0  4  0  0  0  0  0  0
    0.8869    3.7024   -0.3103 C   0  0  0  0  0  0  0  0  0  0  0  0
    1.1258    2.8638    0.9348 C   0  0  0  0  0  0  0  0  0  0  0  0
    3.3269    2.5249   -1.5714 C   0  0  0  0  0  0  0  0  0  0  0  0
    3.8626    1.7886   -2.7885 C   0  0  0  0  0  0  0  0  0  0  0  0
    1.2443    3.8255   -3.2747 C   0  0  0  0  0  0  0  0  0  0  0  0
    1.7799    3.0892   -4.4918 C   0  0  0  0  0  0  0  0  0  0  0  0
    0.7280   -0.9502    0.1856 H   0  0  0  0  0  0  0  0  0  0  0  0
    0.7280    0.7211    0.6954 H   0  0  0  0  0  0  0  0  0  0  0  0
    2.1547    0.0326   -0.0420 H   0  0  0  0  0  0  0  0  0  0  0  0
   -2.1420    2.6209    1.1797 H   0  0  0  0  0  0  0  0  0  0  0  0
   -0.9237    1.3761    1.3185 H   0  0  0  0  0  0  0  0  0  0  0  0
   -0.5238    4.0796    0.0577 H   0  0  0  0  0  0  0  0  0  0  0  0
    0.0586    3.5990    1.6334 H   0  0  0  0  0  0  0  0  0  0  0  0
    0.6945    2.8348    0.1965 H   0  0  0  0  0  0  0  0  0  0  0  0
   -3.1382    3.4429   -1.5151 H   0  0  0  0  0  0  0  0  0  0  0  0
   -1.4977    3.7655   -2.0231 H   0  0  0  0  0  0  0  0  0  0  0  0
   -3.3691    1.7905   -3.3101 H   0  0  0  0  0  0  0  0  0  0  0  0
   -2.9469    3.3579   -3.9568 H   0  0  0  0  0  0  0  0  0  0  0  0
   -1.7286    2.1131   -3.8180 H   0  0  0  0  0  0  0  0  0  0  0  0
   -2.6418   -0.4825   -0.2703 H   0  0  0  0  0  0  0  0  0  0  0  0
   -3.8601    0.7623   -0.4090 H   0  0  0  0  0  0  0  0  0  0  0  0
   -2.4506   -0.5676   -2.7119 H   0  0  0  0  0  0  0  0  0  0  0  0
   -4.0910   -0.8901   -2.2040 H   0  0  0  0  0  0  0  0  0  0  0  0
   -3.6689    0.6772   -2.8507 H   0  0  0  0  0  0  0  0  0  0  0  0
    1.3914    4.6407   -0.2105 H   0  0  0  0  0  0  0  0  0  0  0  0
   -0.1627    3.8726   -0.4297 H   0  0  0  0  0  0  0  0  0  0  0  0
    2.1754    2.6936    1.0542 H   0  0  0  0  0  0  0  0  0  0  0  0
    0.7487    3.3821    1.7916 H   0  0  0  0  0  0  0  0  0  0  0  0
    0.6214    1.9255    0.8350 H   0  0  0  0  0  0  0  0  0  0  0  0
    3.8313    3.4632   -1.4716 H   0  0  0  0  0  0  0  0  0  0  0  0
    3.4951    1.9346   -0.6949 H   0  0  0  0  0  0  0  0  0  0  0  0
    3.6945    2.3789   -3.6650 H   0  0  0  0  0  0  0  0  0  0  0  0
    4.9122    1.6184   -2.6691 H   0  0  0  0  0  0  0  0  0  0  0  0
    3.3582    0.8503   -2.8883 H   0  0  0  0  0  0  0  0  0  0  0  0
    0.1947    3.9957   -3.3941 H   0  0  0  0  0  0  0  0  0  0  0  0
    1.7487    4.7638   -3.1749 H   0  0  0  0  0  0  0  0  0  0  0  0
    1.2755    2.1509   -4.5916 H   0  0  0  0  0  0  0  0  0  0  0  0
    1.6118    3.6795   -5.3683 H   0  0  0  0  0  0  0  0  0  0  0  0
    2.8295    2.9190   -4.3724 H   0  0  0  0  0  0  0  0  0  0  0  0
  1  2  1  0  0  0  0
  1 21  1  0  0  0  0
  1 22  1  0  0  0  0
  1 23  1  0  0  0  0
  2  3  1  0  0  0  0
  2  4  1  0  0  0  0
  2  5  1  0  0  0  0
  2  7  1  0  0  0  0
  2 14  1  0  0  0  0
  5  6  3  0  0  0  0
  7  8  1  0  0  0  0
  7 10  1  0  0  0  0
  7 12  1  0  0  0  0
  8  9  1  0  0  0  0
  8 24  1  0  0  0  0
  8 25  1  0  0  0  0
  9 26  1  0  0  0  0
  9 27  1  0  0  0  0
  9 28  1  0  0  0  0
 10 11  1  0  0  0  0
 10 29  1  0  0  0  0
 10 30  1  0  0  0  0
 11 31  1  0  0  0  0
 11 32  1  0  0  0  0
 11 33  1  0  0  0  0
 12 13  1  0  0  0  0
 12 34  1  0  0  0  0
 12 35  1  0  0  0  0
 13 36  1  0  0  0  0
 13 37  1  0  0  0  0
 13 38  1  0  0  0  0
 14 15  1  0  0  0  0
 14 17  1  0  0  0  0
 14 19  1  0  0  0  0
 15 16  1  0  0  0  0
 15 39  1  0  0  0  0
 15 40  1  0  0  0  0
 16 41  1  0  0  0  0
 16 42  1  0  0  0  0
 16 43  1  0  0  0  0
 17 18  1  0  0  0  0
 17 44  1  0  0  0  0
 17 45  1  0  0  0  0
 18 46  1  0  0  0  0
 18 47  1  0  0  0  0
 18 48  1  0  0  0  0
 19 20  1  0  0  0  0
 19 49  1  0  0  0  0
 19 50  1  0  0  0  0
 20 51  1  0  0  0  0
 20 52  1  0  0  0  0
 20 53  1  0  0  0  0
M  END
$$$$
