
  --CCDC--081225    3D                              

 80 95  0  0  0  0  0  0  0  0999 V2000
   -0.1879   -1.9401   -3.0194 C      0
    1.2060   -2.2026   -3.1682 O      0
    1.9594   -2.5777   -2.0837 C      0
    3.3070   -2.8222   -2.2744 C      0
    4.1012   -3.2023   -1.2084 C      0
    3.5663   -3.3444    0.0640 C      0
    2.2096   -3.0963    0.2470 C      0
    1.4108   -2.7160   -0.8176 C      0
    4.4542   -3.7397    1.1089 N      0
    6.3631   -4.0113    0.5767 Cu     0
    7.0976   -6.0187   -0.4482 P      0
    5.8149   -6.8114   -1.4470 C      0
    4.4808   -6.7432   -1.0612 C      0
    3.5088   -7.4142   -1.7843 C      0
    3.8590   -8.1736   -2.8797 C      0
    5.1823   -8.2749   -3.2507 C      0
    6.1609   -7.6072   -2.5333 C      0
    7.6436   -7.1945    0.8131 C      0
    7.6269   -8.5606    0.5550 C      0
    8.1164   -9.4552    1.4921 C      0
    8.6448   -8.9968    2.6794 C      0
    8.6967   -7.6429    2.9309 C      0
    8.2095   -6.7412    1.9994 C      0
    8.5133   -5.5752   -1.4838 C      0
    9.7681   -6.2918   -1.8811 C      0
   10.6688   -5.5718   -2.6889 C      0
    9.9946   -4.4387   -3.1014 C      0
    8.7133   -4.5153   -2.5262 C      0
   10.1709   -4.4115   -1.0020 Fe     0
   11.5115   -4.5090    0.6207 C      0
   11.9002   -3.4900   -0.2273 C      0
   10.8432   -2.5600   -0.2335 C      0
    9.5634   -3.0049    0.4070 C      0
   10.2343   -4.1577    1.0934 C      0
    7.9375   -2.2394    0.6147 P      0
    7.8853   -1.2821    2.1486 C      0
    6.9968   -0.2215    2.2868 C      0
    6.9047    0.4616    3.4880 C      0
    7.6775    0.0812    4.5638 C      0
    8.5371   -0.9897    4.4477 C      0
    8.6355   -1.6784    3.2502 C      0
    7.6435   -1.1152   -0.7715 C      0
    7.1333   -1.5971   -1.9717 C      0
    6.9793   -0.7502   -3.0566 C      0
    7.3527    0.5730   -2.9626 C      0
    7.8919    1.0528   -1.7887 C      0
    8.0491    0.2128   -0.6988 C      0
    4.1490   -3.9647    2.4829 C      0
    3.0615   -3.8523    3.0122 O      0
    5.3239   -4.3837    3.3873 C      0
    5.8551   -5.5348    3.0091 F      0
    4.9512   -4.5314    4.6481 F      0
    6.3002   -3.4910    3.3801 F      0
   -0.6308   -1.6566   -3.9718 H      0
   -0.3543   -1.1291   -2.3134 H      0
   -0.7093   -2.8215   -2.6521 H      0
    3.7420   -2.7157   -3.2627 H      0
    5.1571   -3.3928   -1.3690 H      0
    1.7523   -3.1946    1.2231 H      0
    0.3568   -2.5301   -0.6415 H      0
    4.1996   -6.1592   -0.1911 H      0
    2.4680   -7.3436   -1.4860 H      0
    3.0944   -8.6946   -3.4465 H      0
    5.4588   -8.8817   -4.1066 H      0
    7.2023   -7.7034   -2.8221 H      0
    7.2259   -8.9278   -0.3840 H      0
    8.0857  -10.5208    1.2898 H      0
    9.0235   -9.7006    3.4132 H      0
    9.1229   -7.2818    3.8612 H      0
    8.2671   -5.6760    2.1977 H      0
    6.3746    0.0741    1.4486 H      0
    6.2201    1.2979    3.5831 H      0
    7.6060    0.6213    5.5021 H      0
    9.1373   -1.2956    5.2981 H      0
    9.3034   -2.5297    3.1704 H      0
    6.8526   -2.6416   -2.0583 H      0
    6.5654   -1.1304   -3.9847 H      0
    7.2267    1.2348   -3.8131 H      0
    8.1964    2.0918   -1.7187 H      0
    8.4880    0.5938    0.2174 H      0
  1  2  1
  2  3  1
  3  4  4
  4  5  4
  5  6  4
  6  7  4
  7  8  4
  3  8  4
  6  9  1
  9 10  1
 10 11  1
 11 12  1
 12 13  4
 13 14  4
 14 15  4
 15 16  4
 16 17  4
 12 17  4
 11 18  1
 18 19  4
 19 20  4
 20 21  4
 21 22  4
 22 23  4
 18 23  4
 11 24  1
 24 25  4
 25 26  4
 26 27  4
 27 28  4
 24 28  4
 28 29  1
 24 29  1
 25 29  1
 26 29  1
 27 29  1
 29 30  1
 30 31  4
 29 31  1
 31 32  4
 29 32  1
 32 33  4
 29 33  1
 33 34  4
 29 34  1
 30 34  4
 33 35  1
 10 35  1
 35 36  1
 36 37  4
 37 38  4
 38 39  4
 39 40  4
 40 41  4
 36 41  4
 35 42  1
 42 43  4
 43 44  4
 44 45  4
 45 46  4
 46 47  4
 42 47  4
  9 48  1
 48 49  2
 48 50  1
 50 51  1
 50 52  1
 50 53  1
  1 54  1
  1 55  1
  1 56  1
  4 57  1
  5 58  1
  7 59  1
  8 60  1
 13 61  1
 14 62  1
 15 63  1
 16 64  1
 17 65  1
 19 66  1
 20 67  1
 21 68  1
 22 69  1
 23 70  1
 37 71  1
 38 72  1
 39 73  1
 40 74  1
 41 75  1
 43 76  1
 44 77  1
 45 78  1
 46 79  1
 47 80  1
M  END
$$$$
