
  --CCDC--081225    3D                              

109117  0  0  0  0  0  0  0  0999 V2000
    6.6265   -2.9669    3.0246 C      0
    6.1981   -2.4882    1.7182 C      0
    5.8149   -2.0832    0.7264 N      0
    5.0741   -1.3001   -1.1908 Fe     2
    5.5853    0.4493   -2.4151 N      0
    5.8488    1.3552   -3.0543 C      0
    6.1304    2.5147   -3.8833 C      0
    4.7414   -3.3030   -2.0425 N      0
    5.8001   -4.0029   -2.4503 C      0
    7.1321   -3.7007   -1.8304 C      0
    7.3568   -1.9368   -2.1391 P      0
    8.7519   -1.1807   -1.2710 C      0
    8.6538    0.1263   -0.8087 C      0
    9.7637    0.7840   -0.3099 C      0
   11.0046    0.1690   -0.2666 C      0
   12.2235    0.9059    0.2354 C      0
   11.0973   -1.1352   -0.7267 C      0
    9.9936   -1.8056   -1.2251 C      0
    7.5698   -1.5492   -3.8973 C      0
    6.9508   -2.2698   -4.9161 C      0
    7.1410   -1.9226   -6.2405 C      0
    7.9215   -0.8376   -6.5996 C      0
    8.1305   -0.4788   -8.0503 C      0
    8.4941   -0.0909   -5.5835 C      0
    8.3215   -0.4334   -4.2543 C      0
    3.3503   -3.6321   -2.0755 C      0
    2.5161   -2.3756   -2.4645 C      0
    2.9322   -1.2643   -1.6710 N      0
    2.1963   -0.3327   -1.0679 C      0
    2.8761    0.9752   -0.7736 C      0
    4.1297    0.4497    0.4122 P      0
    5.4052    1.6312    0.8989 C      0
    5.2013    3.0042    0.9257 C      0
    6.1756    3.8318    1.4578 C      0
    7.3543    3.3225    1.9826 C      0
    8.3940    4.2162    2.6104 C      0
    7.5507    1.9547    1.9360 C      0
    6.5879    1.1176    1.4130 C      0
    3.3040   -0.0910    1.9320 C      0
    4.0214   -0.5793    3.0182 C      0
    3.3642   -1.0003    4.1613 C      0
    1.9905   -0.8731    4.2922 C      0
    1.2861   -1.2882    5.5608 C      0
    1.2845   -0.3468    3.2226 C      0
    1.9236    0.0259    2.0540 C      0
    2.5142   -2.0359   -3.9428 C      0
    1.3222   -2.0880   -4.6519 C      0
    1.2861   -1.7993   -6.0058 C      0
    2.4418   -1.4470   -6.6666 C      0
    3.6316   -1.3826   -5.9744 C      0
    3.6712   -1.6766   -4.6197 C      0
    3.0153   -4.8318   -2.9523 C      0
    2.3829   -5.9360   -2.3980 C      0
    2.0453   -7.0301   -3.1785 C      0
    2.3467   -7.0461   -4.5223 C      0
    2.9823   -5.9650   -5.0895 C      0
    3.3103   -4.8683   -4.3109 C      0
    5.7791   -3.0610    3.6990 H      0
    7.3342   -2.2673    3.4663 H      0
    7.1085   -3.9388    2.9471 H      0
    5.2025    2.9823   -4.2097 H      0
    6.7143    3.2590   -3.3488 H      0
    6.6861    2.2047   -4.7672 H      0
    5.7077   -4.8017   -3.1776 H      0
    7.1108   -3.9127   -0.7542 H      0
    7.9418   -4.2969   -2.2692 H      0
    7.7003    0.6410   -0.8573 H      0
    9.6628    1.8055    0.0427 H      0
   12.2008    1.9484   -0.0755 H      0
   13.1334    0.4576   -0.1579 H      0
   12.2755    0.8788    1.3215 H      0
   12.0600   -1.6355   -0.7057 H      0
   10.1031   -2.8176   -1.5998 H      0
    6.3213   -3.1201   -4.6915 H      0
    6.6693   -2.5158   -7.0165 H      0
    7.4788   -1.0689   -8.6914 H      0
    9.1601   -0.6655   -8.3483 H      0
    7.9121    0.5729   -8.2210 H      0
    9.0905    0.7793   -5.8364 H      0
    8.7871    0.1698   -3.4818 H      0
    3.0742   -3.8950   -1.0424 H      0
    1.4712   -2.5976   -2.1974 H      0
    1.1611   -0.5093   -0.7971 H      0
    2.1917    1.7216   -0.3500 H      0
    3.3268    1.4053   -1.6768 H      0
    4.2802    3.4266    0.5367 H      0
    6.0099    4.9031    1.4721 H      0
    9.3053    4.2234    2.0158 H      0
    8.6454    3.8678    3.6105 H      0
    8.0279    5.2370    2.6909 H      0
    8.4697    1.5305    2.3260 H      0
    6.7522    0.0456    1.4139 H      0
    5.1049   -0.6031    2.9852 H      0
    3.9386   -1.4284    4.9763 H      0
    1.5661   -2.3004    5.8457 H      0
    1.5478   -0.6214    6.3805 H      0
    0.2060   -1.2572    5.4282 H      0
    0.2098   -0.2197    3.3034 H      0
    1.3420    0.4346    1.2338 H      0
    0.4073   -2.3648   -4.1380 H      0
    0.3474   -1.8531   -6.5481 H      0
    2.4151   -1.2211   -7.7276 H      0
    4.5403   -1.1017   -6.4965 H      0
    4.6151   -1.6319   -4.0863 H      0
    2.1469   -5.9415   -1.3389 H      0
    1.5408   -7.8798   -2.7300 H      0
    2.0838   -7.9049   -5.1300 H      0
    3.2253   -5.9709   -6.1475 H      0
    3.8116   -4.0224   -4.7697 H      0
  1  2  1
  2  3  3
  3  4  1
  4  5  1
  5  6  3
  6  7  1
  4  8  1
  8  9  2
  9 10  1
 10 11  1
  4 11  1
 11 12  1
 12 13  4
 13 14  4
 14 15  4
 15 16  1
 15 17  4
 17 18  4
 12 18  4
 11 19  1
 19 20  4
 20 21  4
 21 22  4
 22 23  1
 22 24  4
 24 25  4
 19 25  4
  8 26  1
 26 27  1
 27 28  1
  4 28  1
 28 29  2
 29 30  1
 30 31  1
  4 31  1
 31 32  1
 32 33  4
 33 34  4
 34 35  4
 35 36  1
 35 37  4
 37 38  4
 32 38  4
 31 39  1
 39 40  4
 40 41  4
 41 42  4
 42 43  1
 42 44  4
 44 45  4
 39 45  4
 27 46  1
 46 47  4
 47 48  4
 48 49  4
 49 50  4
 50 51  4
 46 51  4
 26 52  1
 52 53  4
 53 54  4
 54 55  4
 55 56  4
 56 57  4
 52 57  4
  1 58  1
  1 59  1
  1 60  1
  7 61  1
  7 62  1
  7 63  1
  9 64  1
 10 65  1
 10 66  1
 13 67  1
 14 68  1
 16 69  1
 16 70  1
 16 71  1
 17 72  1
 18 73  1
 20 74  1
 21 75  1
 23 76  1
 23 77  1
 23 78  1
 24 79  1
 25 80  1
 26 81  1
 27 82  1
 29 83  1
 30 84  1
 30 85  1
 33 86  1
 34 87  1
 36 88  1
 36 89  1
 36 90  1
 37 91  1
 38 92  1
 40 93  1
 41 94  1
 43 95  1
 43 96  1
 43 97  1
 44 98  1
 45 99  1
 47100  1
 48101  1
 49102  1
 50103  1
 51104  1
 53105  1
 54106  1
 55107  1
 56108  1
 57109  1
M  CHG  1   4   2
M  END
$$$$
