
     RDKit          3D

 29 30  0  0  0  0  0  0  0  0999 V2000
   -2.1489    0.3589    1.1281 C   0  0  0  0  0  0  0  0  0  0  0  0
   -1.2611   -0.5008    0.3717 N   0  0  0  0  0  0  0  0  0  0  0  0
    0.0571   -0.8204    0.7925 C   0  0  0  0  0  0  0  0  0  0  0  0
    0.6395   -1.9357    2.2224 Au  0  0  0  0  0  3  0  0  0  0  0  0
   -0.7472   -2.9422    3.4944 Cl  0  0  0  0  0  0  0  0  0  0  0  0
    1.1539   -0.2523    0.0775 N   0  0  0  0  0  0  0  0  0  0  0  0
    1.5749    1.1101    0.1667 C   0  0  0  0  0  0  0  0  0  0  0  0
    3.0327    1.1607   -0.2091 C   0  0  0  0  0  0  0  0  0  0  0  0
    3.4256   -0.2761   -0.5467 C   0  0  0  0  0  0  0  0  0  0  0  0
    2.0683   -0.8890   -0.8713 C   0  0  0  0  0  0  0  0  0  0  0  0
   -2.0383   -0.8847   -0.8000 C   0  0  0  0  0  0  0  0  0  0  0  0
   -2.6219    0.4897   -1.1550 C   0  0  0  0  0  0  0  0  0  0  0  0
   -3.2331    0.8206    0.1766 C   0  0  0  0  0  0  0  0  0  0  0  0
   -2.6001   -0.1524    1.9951 H   0  0  0  0  0  0  0  0  0  0  0  0
   -1.6003    1.2762    1.4435 H   0  0  0  0  0  0  0  0  0  0  0  0
    0.9711    1.7457   -0.5448 H   0  0  0  0  0  0  0  0  0  0  0  0
    1.4591    1.4945    1.2073 H   0  0  0  0  0  0  0  0  0  0  0  0
    3.2446    1.7902   -1.0988 H   0  0  0  0  0  0  0  0  0  0  0  0
    3.6713    1.4555    0.6475 H   0  0  0  0  0  0  0  0  0  0  0  0
    3.8655   -0.8072    0.3168 H   0  0  0  0  0  0  0  0  0  0  0  0
    4.0550   -0.3278   -1.4570 H   0  0  0  0  0  0  0  0  0  0  0  0
    2.1622   -1.9797   -0.7067 H   0  0  0  0  0  0  0  0  0  0  0  0
    1.7929   -0.6917   -1.9143 H   0  0  0  0  0  0  0  0  0  0  0  0
   -2.8685   -1.4994   -0.4550 H   0  0  0  0  0  0  0  0  0  0  0  0
   -1.4173   -1.3005   -1.6061 H   0  0  0  0  0  0  0  0  0  0  0  0
   -3.3060    0.4406   -1.9957 H   0  0  0  0  0  0  0  0  0  0  0  0
   -1.7479    1.1372   -1.2927 H   0  0  0  0  0  0  0  0  0  0  0  0
   -3.5055    1.8687    0.3011 H   0  0  0  0  0  0  0  0  0  0  0  0
   -4.0777    0.1113    0.3120 H   0  0  0  0  0  0  0  0  0  0  0  0
  1  2  1  0
  2  3  1  0
  3  4  2  3
  4  5  1  0
  3  6  1  0
  6  7  1  0
  7  8  1  0
  8  9  1  0
  9 10  1  0
  2 11  1  0
 11 12  1  0
 12 13  1  0
 13  1  1  0
 10  6  1  0
  1 14  1  0
  1 15  1  0
  7 16  1  0
  7 17  1  0
  8 18  1  0
  8 19  1  0
  9 20  1  0
  9 21  1  0
 10 22  1  0
 10 23  1  0
 11 24  1  0
 11 25  1  0
 12 26  1  0
 12 27  1  0
 13 28  1  0
 13 29  1  0
M  END
