
     RDKit          3D

 64 65  0  0  0  0  0  0  0  0999 V2000
    2.7746    0.6980   -2.0451 C   0  0  0  0  0  0  0  0  0  0  0  0
    2.0543    0.0321   -0.9545 C   0  0  0  0  0  0  0  0  0  0  0  0
    0.8027    0.4401   -0.7352 N   0  0  0  0  0  0  0  0  0  0  0  0
    0.2384   -0.2078    0.2555 N   0  0  0  0  0  0  0  0  0  0  0  0
   -1.4770    0.0049    1.0019 Pt  0  0  0  0  0  6  0  0  0  0  0  0
   -1.1586   -1.6310    1.9970 C   0  0  0  0  0  0  0  0  0  0  0  0
   -0.4852    0.7974    2.4389 C   0  0  0  0  0  0  0  0  0  0  0  0
   -2.9559    0.1429    2.1553 C   0  0  0  0  0  0  0  0  0  0  0  0
   -2.3076   -1.0984   -0.2920 P   0  0  0  0  0  5  0  0  0  0  0  0
   -3.4529   -2.3315    0.3519 C   0  0  0  0  0  0  0  0  0  0  0  0
   -0.9859   -2.3530   -0.6729 C   0  0  0  0  0  0  0  0  0  0  0  0
   -2.4329   -0.6724   -1.9507 C   0  0  0  0  0  0  0  0  0  0  0  0
   -1.7707    1.7277    0.2867 P   0  0  0  0  0  5  0  0  0  0  0  0
   -1.3163    2.0699   -1.3686 C   0  0  0  0  0  0  0  0  0  0  0  0
   -3.5849    1.9775    0.0478 C   0  0  0  0  0  0  0  0  0  0  0  0
   -1.7169    3.0347    1.5126 C   0  0  0  0  0  0  0  0  0  0  0  0
    1.1477   -1.0637    0.6948 N   0  0  0  0  0  0  0  0  0  0  0  0
    2.2640   -0.9488   -0.0135 C   0  0  0  0  0  0  0  0  0  0  0  0
    3.3892   -1.8447    0.3557 C   0  0  0  0  0  0  0  0  0  0  0  0
    4.7408   -1.2444    0.2080 C   0  0  0  0  0  0  0  0  0  0  0  0
    4.7932    0.2457    0.1854 C   0  0  0  0  0  0  0  0  0  0  0  0
    5.1285    0.6660   -1.2288 C   0  0  0  0  0  0  0  0  0  0  0  0
    4.1377    0.1135   -2.2306 C   0  0  0  0  0  0  0  0  0  0  0  0
    2.9217    1.7959   -1.8568 H   0  0  0  0  0  0  0  0  0  0  0  0
    2.2067    0.6789   -3.0122 H   0  0  0  0  0  0  0  0  0  0  0  0
   -1.2904   -1.3532    3.1009 H   0  0  0  0  0  0  0  0  0  0  0  0
   -1.9336   -2.3527    1.8407 H   0  0  0  0  0  0  0  0  0  0  0  0
   -0.1158   -1.9115    1.9527 H   0  0  0  0  0  0  0  0  0  0  0  0
    0.1848    0.0611    2.9380 H   0  0  0  0  0  0  0  0  0  0  0  0
    0.2407    1.5151    1.9736 H   0  0  0  0  0  0  0  0  0  0  0  0
   -1.1236    1.2002    3.2109 H   0  0  0  0  0  0  0  0  0  0  0  0
   -2.9697    1.1528    2.6170 H   0  0  0  0  0  0  0  0  0  0  0  0
   -3.8295   -0.1608    1.5986 H   0  0  0  0  0  0  0  0  0  0  0  0
   -2.9015   -0.5298    3.0420 H   0  0  0  0  0  0  0  0  0  0  0  0
   -3.3760   -0.3449   -0.1796 H   0  0  0  0  0  0  0  0  0  0  0  0
   -4.3063   -2.5828   -0.3266 H   0  0  0  0  0  0  0  0  0  0  0  0
   -3.0376   -3.3757    0.4998 H   0  0  0  0  0  0  0  0  0  0  0  0
   -3.8925   -2.1524    1.3498 H   0  0  0  0  0  0  0  0  0  0  0  0
   -0.7755   -2.7473    0.2989 H   0  0  0  0  0  0  0  0  0  0  0  0
   -0.2112   -1.7601   -1.1224 H   0  0  0  0  0  0  0  0  0  0  0  0
   -1.4814   -3.0780   -1.3454 H   0  0  0  0  0  0  0  0  0  0  0  0
   -2.8946    0.1620   -2.4685 H   0  0  0  0  0  0  0  0  0  0  0  0
   -1.5230   -0.7997   -2.6352 H   0  0  0  0  0  0  0  0  0  0  0  0
   -3.0593   -1.5526   -2.3854 H   0  0  0  0  0  0  0  0  0  0  0  0
   -0.4809    2.0190    0.3670 H   0  0  0  0  0  0  0  0  0  0  0  0
   -0.7977    3.0760   -1.5995 H   0  0  0  0  0  0  0  0  0  0  0  0
   -0.8597    1.2818   -1.9819 H   0  0  0  0  0  0  0  0  0  0  0  0
   -2.1804    2.3259   -2.0935 H   0  0  0  0  0  0  0  0  0  0  0  0
   -3.8581    1.4530   -0.8235 H   0  0  0  0  0  0  0  0  0  0  0  0
   -3.9833    1.7208    0.9995 H   0  0  0  0  0  0  0  0  0  0  0  0
   -3.7702    3.0667   -0.2321 H   0  0  0  0  0  0  0  0  0  0  0  0
   -1.7744    4.0594    1.0459 H   0  0  0  0  0  0  0  0  0  0  0  0
   -2.6600    3.1121    2.1554 H   0  0  0  0  0  0  0  0  0  0  0  0
   -1.0188    3.0204    2.3672 H   0  0  0  0  0  0  0  0  0  0  0  0
    3.2319   -2.1652    1.4281 H   0  0  0  0  0  0  0  0  0  0  0  0
    3.3616   -2.8012   -0.2067 H   0  0  0  0  0  0  0  0  0  0  0  0
    5.3812   -1.5931    1.0721 H   0  0  0  0  0  0  0  0  0  0  0  0
    5.2708   -1.6990   -0.6800 H   0  0  0  0  0  0  0  0  0  0  0  0
    3.8670    0.7137    0.5622 H   0  0  0  0  0  0  0  0  0  0  0  0
    5.6382    0.6437    0.8197 H   0  0  0  0  0  0  0  0  0  0  0  0
    6.1235    0.1881   -1.4529 H   0  0  0  0  0  0  0  0  0  0  0  0
    5.1855    1.7721   -1.3141 H   0  0  0  0  0  0  0  0  0  0  0  0
    4.5728    0.3591   -3.2351 H   0  0  0  0  0  0  0  0  0  0  0  0
    4.0924   -0.9723   -2.1748 H   0  0  0  0  0  0  0  0  0  0  0  0
  1  2  1  0
  2  3  2  0
  3  4  1  0
  4  5  1  0
  5  6  1  0
  5  7  1  0
  5  8  1  0
  5  9  1  0
  9 10  1  0
  9 11  1  0
  9 12  1  0
  5 13  1  0
 13 14  1  0
 13 15  1  0
 13 16  1  0
  4 17  1  0
 17 18  2  0
 18 19  1  0
 19 20  1  0
 20 21  1  0
 21 22  1  0
 22 23  1  0
 23  1  1  0
 18  2  1  0
  1 24  1  0
  1 25  1  0
  6 26  1  0
  6 27  1  0
  6 28  1  0
  7 29  1  0
  7 30  1  0
  7 31  1  0
  8 32  1  0
  8 33  1  0
  8 34  1  0
  9 35  1  0
 10 36  1  0
 10 37  1  0
 10 38  1  0
 11 39  1  0
 11 40  1  0
 11 41  1  0
 12 42  1  0
 12 43  1  0
 12 44  1  0
 13 45  1  0
 14 46  1  0
 14 47  1  0
 14 48  1  0
 15 49  1  0
 15 50  1  0
 15 51  1  0
 16 52  1  0
 16 53  1  0
 16 54  1  0
 19 55  1  0
 19 56  1  0
 20 57  1  0
 20 58  1  0
 21 59  1  0
 21 60  1  0
 22 61  1  0
 22 62  1  0
 23 63  1  0
 23 64  1  0
M  END
