
  --CCDC--092525    3D                              

 44 43  0  0  0  0  0  0  0  0999 V2000
    0.1003    0.2204    0.1447 H      0
    0.6318    1.1469    0.3490 C      0
    1.2638    1.3731   -0.5070 H      0
    1.3075    0.9541    1.1794 H      0
   -0.4967    2.5170    0.7802 P      0
    0.8793    3.6455    0.3858 C      0
    1.1603    3.6421   -0.6650 H      0
    1.7608    3.3289    0.9394 H      0
    0.6845    4.6732    0.6878 H      0
   -0.8080    1.6213    2.3520 C      0
    0.0872    1.0697    2.6304 H      0
   -1.6165    0.8976    2.2911 H      0
   -1.0173    2.2767    3.1948 H      0
   -1.8120    2.8632   -0.1909 O      0
   -1.4413    4.1392   -0.1466 N      0
   -1.7380    5.0799    0.6426 N      3
   -1.9153    6.0175    1.2721 N      5
   -2.0723    1.4666   -0.4083 C      0
   -3.1100    1.2018   -0.5093 H      0
   -1.7509    0.8104    0.3797 H      0
   -1.6088    1.0634   -1.3035 H      0
   -1.0158    2.8814   -1.3775 C      0
   -1.5023    2.6476   -2.3066 H      0
   -0.1494    2.2447   -1.3927 H      0
   -0.6187    3.8834   -1.5228 H      0
   -2.6123    2.8964    0.9998 C      0
   -3.3934    3.6326    1.0086 H      0
   -2.1064    3.2553    1.8775 H      0
   -3.0626    1.9406    1.2592 H      0
   -3.1865    3.3048   -1.0354 P      0
   -4.8080    2.8041   -0.3343 C      0
   -4.7845    1.8469    0.1798 H      0
   -5.5358    2.7135   -1.1372 H      0
   -5.2314    3.5357    0.3513 H      0
   -3.6870    2.3756   -2.5277 C      0
   -4.6788    2.6921   -2.8424 H      0
   -3.0368    2.5509   -3.3819 H      0
   -3.7334    1.3036   -2.3508 H      0
   -2.8221    4.7176   -2.1285 C      0
   -3.7155    4.9582   -2.7009 H      0
   -2.0381    4.5158   -2.8552 H      0
   -2.5585    5.6191   -1.5790 H      0
   -0.2967    3.4925    1.7672 H      0
   -3.7418    4.5038   -0.5662 H      0
  1  2  1
  2  3  1
  2  4  1
  2  5  1
  5  6  1
  6  7  1
  6  8  1
  6  9  1
  5 10  1
 10 11  1
 10 12  1
 10 13  1
  5 14  1
 14 15  1
 15 16  2
 16 17  2
 14 18  1
 18 19  1
 18 20  1
 18 21  1
 14 22  1
 22 23  1
 22 24  1
 22 25  1
 14 26  1
 26 27  1
 26 28  1
 26 29  1
 14 30  1
 30 31  1
 31 32  1
 31 33  1
 31 34  1
 30 35  1
 35 36  1
 35 37  1
 35 38  1
 30 39  1
 39 40  1
 39 41  1
 39 42  1
  5 43  1
 30 44  1
M  CHG  2  16   1  17  -1
M  END
$$$$
