
  --CCDC--092525    3D                              

 44 43  0  0  0  0  0  0  0  0999 V2000
    0.7881    0.9478   -0.8865 H      0
    0.6538    1.9834   -0.5818 C      0
    0.1430    2.4877   -1.3994 H      0
    1.6376    2.4443   -0.5144 H      0
   -0.3727    2.1183    0.9290 P      0
   -2.1713    2.3626    1.0551 C      0
   -2.7381    1.4677    0.8016 H      0
   -2.4701    3.1253    0.3391 H      0
   -2.4867    2.7247    2.0297 H      0
   -0.0759    3.8885    1.2840 C      0
    0.1816    4.4026    0.3604 H      0
    0.7352    4.0712    1.9848 H      0
   -0.9649    4.3768    1.6759 H      0
    0.0426    0.9376    2.0490 O      0
   -1.2277    0.5955    2.3142 N      0
   -2.0594    0.7756    3.2591 N      3
   -2.9043    0.8569    4.0248 N      5
    1.3981    1.3107    1.7718 C      0
    1.8678    0.7520    0.9675 H      0
    2.0671    1.2637    2.6137 H      0
    1.5403    2.3386    1.4974 H      0
   -0.2318   -0.0906    1.0957 C      0
    0.6166   -0.6211    0.6839 H      0
   -0.8291    0.2007    0.2495 H      0
   -0.8986   -0.8210    1.5472 H      0
   -0.0270    1.8880    3.1277 C      0
   -0.8496    2.5866    3.0735 H      0
    0.8492    2.5197    3.2413 H      0
   -0.1702    1.4335    4.0972 H      0
    0.7630   -0.2475    2.9908 P      0
    1.6148    0.1336    4.5629 C      0
    2.5027   -0.4888    4.6523 H      0
    0.9953   -0.0836    5.4301 H      0
    1.9408    1.1685    4.6349 H      0
    2.3384   -0.9661    2.3967 C      0
    2.3158   -1.1861    1.3326 H      0
    2.5143   -1.9087    2.9108 H      0
    3.2111   -0.3459    2.5940 H      0
   -0.4583   -1.0975    4.0303 C      0
   -1.2911   -1.4920    3.4513 H      0
   -0.8360   -0.4532    4.8213 H      0
    0.0163   -1.9433    4.5233 H      0
   -1.1310    1.7822   -0.2010 H      0
    0.5451   -1.5133    2.4331 H      0
  1  2  1
  2  3  1
  2  4  1
  2  5  1
  5  6  1
  6  7  1
  6  8  1
  6  9  1
  5 10  1
 10 11  1
 10 12  1
 10 13  1
  5 14  1
 14 15  1
 15 16  2
 16 17  2
 14 18  1
 18 19  1
 18 20  1
 18 21  1
 14 22  1
 22 23  1
 22 24  1
 22 25  1
 14 26  1
 26 27  1
 26 28  1
 26 29  1
 14 30  1
 30 31  1
 31 32  1
 31 33  1
 31 34  1
 30 35  1
 35 36  1
 35 37  1
 35 38  1
 30 39  1
 39 40  1
 39 41  1
 39 42  1
  5 43  1
 30 44  1
M  CHG  2  16   1  17  -1
M  END
$$$$
