
 OpenBabel08122501083D

 26 26  0  0  0  0  0  0  0  0999 V2000
    1.0699   -0.1513   -0.0574 C   0  0  0  0  0  0  0  0  0  0  0  0
    0.4560   -1.2620    0.7897 C   0  0  0  0  0  0  0  0  0  0  0  0
    1.1089   -1.4014    2.1596 C   0  0  0  0  0  0  0  0  0  0  0  0
   -0.9814   -1.1594    0.9018 O   0  0  0  0  0  0  0  0  0  0  0  0
   -1.5331   -0.0477    1.4405 C   0  0  0  0  0  0  0  0  0  0  0  0
   -0.9539    0.9486    1.8381 O   0  0  0  0  0  0  0  0  0  0  0  0
   -3.0112   -0.1769    1.4457 C   0  0  0  0  0  0  0  0  0  0  0  0
   -3.7805    0.9936    1.3775 C   0  0  0  0  0  0  0  0  0  0  0  0
   -5.1766    0.9227    1.4012 C   0  0  0  0  0  0  0  0  0  0  0  0
   -5.8022   -0.3271    1.5084 C   0  0  0  0  0  0  0  0  0  0  0  0
   -5.0404   -1.5022    1.5848 C   0  0  0  0  0  0  0  0  0  0  0  0
   -3.6439   -1.4242    1.5508 C   0  0  0  0  0  0  0  0  0  0  0  0
   -7.2685   -0.4059    1.5484 N   0  0  0  0  0  0  0  0  0  0  0  0
   -7.9057    0.6494    1.4244 O   0  0  0  0  0  0  0  0  0  0  0  0
   -7.7806   -1.5235    1.7040 O   0  0  0  0  0  0  0  0  0  0  0  0
    1.0561    0.8148    0.4556 H   0  0  0  0  0  0  0  0  0  0  0  0
    0.5151   -0.0286   -0.9933 H   0  0  0  0  0  0  0  0  0  0  0  0
    2.1139   -0.3794   -0.2954 H   0  0  0  0  0  0  0  0  0  0  0  0
    0.6233   -2.2027    0.2513 H   0  0  0  0  0  0  0  0  0  0  0  0
    0.9903   -0.4956    2.7617 H   0  0  0  0  0  0  0  0  0  0  0  0
    0.6428   -2.2189    2.7202 H   0  0  0  0  0  0  0  0  0  0  0  0
    2.1790   -1.6099    2.0640 H   0  0  0  0  0  0  0  0  0  0  0  0
   -3.2919    1.9645    1.3036 H   0  0  0  0  0  0  0  0  0  0  0  0
   -5.7547    1.8431    1.3415 H   0  0  0  0  0  0  0  0  0  0  0  0
   -5.5144   -2.4781    1.6753 H   0  0  0  0  0  0  0  0  0  0  0  0
   -3.0579   -2.3384    1.6216 H   0  0  0  0  0  0  0  0  0  0  0  0
  1  2  1  0  0  0  0
  1 16  1  0  0  0  0
  1 17  1  0  0  0  0
  1 18  1  0  0  0  0
  2  3  1  0  0  0  0
  2  4  1  0  0  0  0
  2 19  1  0  0  0  0
  3 20  1  0  0  0  0
  3 21  1  0  0  0  0
  3 22  1  0  0  0  0
  4  5  1  0  0  0  0
  5  6  2  0  0  0  0
  5  7  1  0  0  0  0
  7  8  1  0  0  0  0
  7 12  2  0  0  0  0
  8  9  2  0  0  0  0
  8 23  1  0  0  0  0
  9 10  1  0  0  0  0
  9 24  1  0  0  0  0
 10 11  2  0  0  0  0
 10 13  1  0  0  0  0
 11 12  1  0  0  0  0
 11 25  1  0  0  0  0
 12 26  1  0  0  0  0
 13 14  2  0  0  0  0
 13 15  2  0  0  0  0
M  END
$$$$
