
 OpenBabel08122501093D

114121  0  0  0  0  0  0  0  0999 V2000
    1.0792    0.0492   -0.0362 C   0  0  0  0  0  0  0  0  0  0  0  0
    0.6058   -0.6302   -1.1898 O   0  0  0  0  0  0  0  0  0  0  0  0
    0.5021   -1.9439   -0.9247 C   0  0  0  0  0  0  0  0  0  0  0  0
    0.9602   -2.7204   -2.0732 C   0  0  0  0  0  0  0  0  0  0  0  0
    2.0319   -1.8274   -2.7426 O   0  0  0  0  0  0  0  0  0  0  0  0
    2.0099   -1.9650   -4.1558 C   0  0  0  0  0  0  0  0  0  0  0  0
    1.5861   -0.4220   -2.3106 Eu  0  0  0  0  0  0  0  0  0  0  0  0
    0.6011    1.2319   -4.1895 N   0  0  0  0  0  0  0  0  0  0  0  0
   -0.6905    1.4779   -4.2377 C   0  0  0  0  0  0  0  0  0  0  0  0
   -2.2808    1.7808   -4.2970 S   0  0  0  0  0  0  0  0  0  0  0  0
    3.3099    0.6873   -4.0524 N   0  0  0  0  0  0  0  0  0  0  0  0
    3.6115    2.1239   -3.9740 C   0  0  0  0  0  0  0  0  0  0  0  0
    4.1385    2.6543   -2.8914 C   0  0  0  0  0  0  0  0  0  0  0  0
    4.3610    4.0269   -2.8693 C   0  0  0  0  0  0  0  0  0  0  0  0
    4.4916    4.6655   -4.1227 C   0  0  0  0  0  0  0  0  0  0  0  0
    3.7006    4.1659   -5.1558 C   0  0  0  0  0  0  0  0  0  0  0  0
    3.2746    2.9234   -5.0719 C   0  0  0  0  0  0  0  0  0  0  0  0
    2.4066    2.3503   -6.1803 C   0  0  0  0  0  0  0  0  0  0  0  0
    1.1344    3.1728   -6.3041 C   0  0  0  0  0  0  0  0  0  0  0  0
    3.1686    2.3949   -7.4948 C   0  0  0  0  0  0  0  0  0  0  0  0
    4.4953    1.7882   -1.6943 C   0  0  0  0  0  0  0  0  0  0  0  0
    5.9845    1.9027   -1.4120 C   0  0  0  0  0  0  0  0  0  0  0  0
    3.7118    2.2561   -0.4788 C   0  0  0  0  0  0  0  0  0  0  0  0
    3.9503   -0.1430   -5.0826 C   0  0  0  0  0  0  0  0  0  0  0  0
    5.2385   -0.2458   -5.3935 C   0  0  0  0  0  0  0  0  0  0  0  0
   -0.6481    0.4565   -3.5243 N   0  0  0  0  0  0  0  0  0  0  0  0
   -1.9590   -0.0754   -3.1251 C   0  0  0  0  0  0  0  0  0  0  0  0
   -2.3636    0.0761   -1.8823 C   0  0  0  0  0  0  0  0  0  0  0  0
   -3.6139   -0.4201   -1.5296 C   0  0  0  0  0  0  0  0  0  0  0  0
   -4.5473   -0.5826   -2.5775 C   0  0  0  0  0  0  0  0  0  0  0  0
   -4.0300   -0.9795   -3.8093 C   0  0  0  0  0  0  0  0  0  0  0  0
   -2.7636   -0.7283   -4.0655 C   0  0  0  0  0  0  0  0  0  0  0  0
   -2.1683   -1.1522   -5.3983 C   0  0  0  0  0  0  0  0  0  0  0  0
   -2.2870   -2.6601   -5.5495 C   0  0  0  0  0  0  0  0  0  0  0  0
   -2.9198   -0.4690   -6.5292 C   0  0  0  0  0  0  0  0  0  0  0  0
   -1.4860    0.7760   -0.8575 C   0  0  0  0  0  0  0  0  0  0  0  0
   -2.2133    1.9963   -0.3166 C   0  0  0  0  0  0  0  0  0  0  0  0
   -1.1804   -0.1792    0.2847 C   0  0  0  0  0  0  0  0  0  0  0  0
    5.4013   -1.0424   -6.6156 C   0  0  0  0  0  0  0  0  0  0  0  0
    6.5271   -1.5042   -7.4496 C   0  0  0  0  0  0  0  0  0  0  0  0
    6.2780   -2.2342   -8.5232 C   0  0  0  0  0  0  0  0  0  0  0  0
    4.9035   -2.6084   -8.9231 C   0  0  0  0  0  0  0  0  0  0  0  0
    3.9030   -2.1977   -8.1813 C   0  0  0  0  0  0  0  0  0  0  0  0
    2.4752   -2.4696   -8.4202 C   0  0  0  0  0  0  0  0  0  0  0  0
    1.5937   -1.9762   -7.5697 C   0  0  0  0  0  0  0  0  0  0  0  0
    1.9441   -1.1672   -6.3907 C   0  0  0  0  0  0  0  0  0  0  0  0
    3.1892   -0.8842   -6.1004 C   0  0  0  0  0  0  0  0  0  0  0  0
    4.2188   -1.3949   -7.0059 C   0  0  0  0  0  0  0  0  0  0  0  0
    2.7579    0.4165   -1.8819 O   0  0  0  0  0  0  0  0  0  0  0  0
    3.9465   -0.3566   -1.9578 C   0  0  0  0  0  0  0  0  0  0  0  0
    2.8643    1.4832   -2.6927 C   0  0  0  0  0  0  0  0  0  0  0  0
    1.5898    1.7290   -3.3603 C   0  0  0  0  0  0  0  0  0  0  0  0
    0.9396    0.3306   -3.4877 O   0  0  0  0  0  0  0  0  0  0  0  0
   -0.4715    0.4008   -3.3450 C   0  0  0  0  0  0  0  0  0  0  0  0
    0.7225   -0.4477    0.8417 H   0  0  0  0  0  0  0  0  0  0  0  0
    0.7225    1.0579   -0.0449 H   0  0  0  0  0  0  0  0  0  0  0  0
    2.1492    0.0492   -0.0362 H   0  0  0  0  0  0  0  0  0  0  0  0
   -0.5212   -2.1830   -0.7233 H   0  0  0  0  0  0  0  0  0  0  0  0
    1.1037   -2.1824   -0.0725 H   0  0  0  0  0  0  0  0  0  0  0  0
    1.3471   -3.6768   -1.7894 H   0  0  0  0  0  0  0  0  0  0  0  0
    0.1516   -2.9108   -2.7477 H   0  0  0  0  0  0  0  0  0  0  0  0
    1.0159   -1.7981   -4.5149 H   0  0  0  0  0  0  0  0  0  0  0  0
    2.6725   -1.2483   -4.5942 H   0  0  0  0  0  0  0  0  0  0  0  0
    2.3248   -2.9521   -4.4230 H   0  0  0  0  0  0  0  0  0  0  0  0
    4.4297    4.5711   -1.9506 H   0  0  0  0  0  0  0  0  0  0  0  0
    5.1608    5.4872   -4.2707 H   0  0  0  0  0  0  0  0  0  0  0  0
    3.4461    4.7773   -5.9963 H   0  0  0  0  0  0  0  0  0  0  0  0
    2.1549    1.3366   -5.9482 H   0  0  0  0  0  0  0  0  0  0  0  0
    1.3862    4.1865   -6.5362 H   0  0  0  0  0  0  0  0  0  0  0  0
    0.5234    2.7694   -7.0844 H   0  0  0  0  0  0  0  0  0  0  0  0
    0.5980    3.1414   -5.3788 H   0  0  0  0  0  0  0  0  0  0  0  0
    4.0642    1.8159   -7.4077 H   0  0  0  0  0  0  0  0  0  0  0  0
    2.5576    1.9914   -8.2751 H   0  0  0  0  0  0  0  0  0  0  0  0
    3.4204    3.4086   -7.7269 H   0  0  0  0  0  0  0  0  0  0  0  0
    4.2498    0.7685   -1.9061 H   0  0  0  0  0  0  0  0  0  0  0  0
    6.2300    2.9224   -1.2003 H   0  0  0  0  0  0  0  0  0  0  0  0
    6.2357    1.2930   -0.5694 H   0  0  0  0  0  0  0  0  0  0  0  0
    6.5361    1.5733   -2.2677 H   0  0  0  0  0  0  0  0  0  0  0  0
    2.6635    2.1755   -0.6776 H   0  0  0  0  0  0  0  0  0  0  0  0
    3.9629    1.6464    0.3638 H   0  0  0  0  0  0  0  0  0  0  0  0
    3.9573    3.2758   -0.2671 H   0  0  0  0  0  0  0  0  0  0  0  0
   -3.8565   -0.6660   -0.5168 H   0  0  0  0  0  0  0  0  0  0  0  0
   -5.5936   -0.4104   -2.4335 H   0  0  0  0  0  0  0  0  0  0  0  0
   -4.6469   -1.4760   -4.5288 H   0  0  0  0  0  0  0  0  0  0  0  0
   -1.1368   -0.8703   -5.4340 H   0  0  0  0  0  0  0  0  0  0  0  0
   -3.3185   -2.9420   -5.5137 H   0  0  0  0  0  0  0  0  0  0  0  0
   -1.8679   -2.9585   -6.4877 H   0  0  0  0  0  0  0  0  0  0  0  0
   -1.7580   -3.1410   -4.7534 H   0  0  0  0  0  0  0  0  0  0  0  0
   -2.8363    0.5924   -6.4227 H   0  0  0  0  0  0  0  0  0  0  0  0
   -2.5007   -0.7674   -7.4673 H   0  0  0  0  0  0  0  0  0  0  0  0
   -3.9514   -0.7509   -6.4934 H   0  0  0  0  0  0  0  0  0  0  0  0
   -0.5714    1.0822   -1.3208 H   0  0  0  0  0  0  0  0  0  0  0  0
   -3.1279    1.6901    0.1467 H   0  0  0  0  0  0  0  0  0  0  0  0
   -1.5955    2.4890    0.4048 H   0  0  0  0  0  0  0  0  0  0  0  0
   -2.4284    2.6687   -1.1207 H   0  0  0  0  0  0  0  0  0  0  0  0
   -0.6685   -1.0382   -0.0960 H   0  0  0  0  0  0  0  0  0  0  0  0
   -0.5626    0.3135    1.0061 H   0  0  0  0  0  0  0  0  0  0  0  0
   -2.0950   -0.4854    0.7480 H   0  0  0  0  0  0  0  0  0  0  0  0
    7.5334   -1.2513   -7.1887 H   0  0  0  0  0  0  0  0  0  0  0  0
    7.0990   -2.5660   -9.1239 H   0  0  0  0  0  0  0  0  0  0  0  0
    4.7299   -3.2005   -9.7972 H   0  0  0  0  0  0  0  0  0  0  0  0
    2.1605   -3.0518   -9.2610 H   0  0  0  0  0  0  0  0  0  0  0  0
    0.5582   -2.1774   -7.7491 H   0  0  0  0  0  0  0  0  0  0  0  0
    1.1635   -0.8021   -5.7565 H   0  0  0  0  0  0  0  0  0  0  0  0
    4.0932   -0.6874   -2.9647 H   0  0  0  0  0  0  0  0  0  0  0  0
    4.7805    0.2407   -1.6535 H   0  0  0  0  0  0  0  0  0  0  0  0
    3.8616   -1.2057   -1.3123 H   0  0  0  0  0  0  0  0  0  0  0  0
    3.6167    1.2923   -3.4292 H   0  0  0  0  0  0  0  0  0  0  0  0
    3.1336    2.3426   -2.1149 H   0  0  0  0  0  0  0  0  0  0  0  0
    1.7145    2.2063   -4.3098 H   0  0  0  0  0  0  0  0  0  0  0  0
    0.9752    2.3792   -2.7735 H   0  0  0  0  0  0  0  0  0  0  0  0
   -0.7131    0.8013   -2.3826 H   0  0  0  0  0  0  0  0  0  0  0  0
   -0.8760    1.0341   -4.1067 H   0  0  0  0  0  0  0  0  0  0  0  0
   -0.8886   -0.5801   -3.4380 H   0  0  0  0  0  0  0  0  0  0  0  0
  1  2  1  0  0  0  0
  1 55  1  0  0  0  0
  1 56  1  0  0  0  0
  1 57  1  0  0  0  0
  2  3  1  0  0  0  0
  2  7  1  0  0  0  0
  3  4  1  0  0  0  0
  3 58  1  0  0  0  0
  3 59  1  0  0  0  0
  4  5  1  0  0  0  0
  4 60  1  0  0  0  0
  4 61  1  0  0  0  0
  5  6  1  0  0  0  0
  5  7  1  0  0  0  0
  6 62  1  0  0  0  0
  6 63  1  0  0  0  0
  6 64  1  0  0  0  0
  7  8  1  0  0  0  0
  7 11  1  0  0  0  0
  7 26  1  0  0  0  0
  7 49  1  0  0  0  0
  7 53  1  0  0  0  0
  8  9  2  0  0  0  0
  9 10  2  0  0  0  0
 11 12  1  0  0  0  0
 11 24  1  0  0  0  0
 12 13  1  0  0  0  0
 12 17  2  0  0  0  0
 13 14  2  0  0  0  0
 13 21  1  0  0  0  0
 14 15  1  0  0  0  0
 14 65  1  0  0  0  0
 15 16  2  0  0  0  0
 15 66  1  0  0  0  0
 16 17  1  0  0  0  0
 16 67  1  0  0  0  0
 17 18  1  0  0  0  0
 18 19  1  0  0  0  0
 18 20  1  0  0  0  0
 18 68  1  0  0  0  0
 19 69  1  0  0  0  0
 19 70  1  0  0  0  0
 19 71  1  0  0  0  0
 20 72  1  0  0  0  0
 20 73  1  0  0  0  0
 20 74  1  0  0  0  0
 21 22  1  0  0  0  0
 21 23  1  0  0  0  0
 21 75  1  0  0  0  0
 22 76  1  0  0  0  0
 22 77  1  0  0  0  0
 22 78  1  0  0  0  0
 23 79  1  0  0  0  0
 23 80  1  0  0  0  0
 23 81  1  0  0  0  0
 24 25  2  0  0  0  0
 24 47  1  0  0  0  0
 25 26  1  0  0  0  0
 25 39  1  0  0  0  0
 26 27  1  0  0  0  0
 27 28  1  0  0  0  0
 27 32  2  0  0  0  0
 28 29  2  0  0  0  0
 28 36  1  0  0  0  0
 29 30  1  0  0  0  0
 29 82  1  0  0  0  0
 30 31  2  0  0  0  0
 30 83  1  0  0  0  0
 31 32  1  0  0  0  0
 31 84  1  0  0  0  0
 32 33  1  0  0  0  0
 33 34  1  0  0  0  0
 33 35  1  0  0  0  0
 33 85  1  0  0  0  0
 34 86  1  0  0  0  0
 34 87  1  0  0  0  0
 34 88  1  0  0  0  0
 35 89  1  0  0  0  0
 35 90  1  0  0  0  0
 35 91  1  0  0  0  0
 36 37  1  0  0  0  0
 36 38  1  0  0  0  0
 36 92  1  0  0  0  0
 37 93  1  0  0  0  0
 37 94  1  0  0  0  0
 37 95  1  0  0  0  0
 38 96  1  0  0  0  0
 38 97  1  0  0  0  0
 38 98  1  0  0  0  0
 39 40  1  0  0  0  0
 39 48  2  0  0  0  0
 40 41  2  0  0  0  0
 40 99  1  0  0  0  0
 41 42  1  0  0  0  0
 41100  1  0  0  0  0
 42 43  2  0  0  0  0
 42101  1  0  0  0  0
 43 44  1  0  0  0  0
 43 48  1  0  0  0  0
 44 45  2  0  0  0  0
 44102  1  0  0  0  0
 45 46  1  0  0  0  0
 45103  1  0  0  0  0
 46 47  2  0  0  0  0
 46104  1  0  0  0  0
 47 48  1  0  0  0  0
 49 50  1  0  0  0  0
 49 51  1  0  0  0  0
 50105  1  0  0  0  0
 50106  1  0  0  0  0
 50107  1  0  0  0  0
 51 52  1  0  0  0  0
 51108  1  0  0  0  0
 51109  1  0  0  0  0
 52 53  1  0  0  0  0
 52110  1  0  0  0  0
 52111  1  0  0  0  0
 53 54  1  0  0  0  0
 54112  1  0  0  0  0
 54113  1  0  0  0  0
 54114  1  0  0  0  0
M  END
$$$$
