
  --CCDC--092525    3D                              

 76 82  0  0  0  0  0  0  0  0999 V2000
   -7.2530    0.8430   -3.4325 H      0
   -6.5228    0.2739   -2.8667 C      0
   -5.7200    0.9010   -1.9420 C      0
   -5.8102    1.9707   -1.7846 H      0
   -4.8005    0.1708   -1.2081 C      0
   -4.1796    0.6825   -0.4803 H      0
   -4.6610   -1.2094   -1.3705 C      0
   -3.4501   -2.0189   -0.2784 P      0
   -4.2892   -3.4312    0.5238 C      0
   -5.2876   -4.1960   -0.0934 C      0
   -5.6493   -3.9451   -1.0762 H      0
   -5.8544   -5.2997    0.5227 C      0
   -6.6398   -5.8522    0.0176 H      0
   -5.4293   -5.7044    1.7651 C      0
   -5.8791   -6.5661    2.2472 H      0
   -4.4210   -5.0065    2.3844 C      0
   -4.0653   -5.3240    3.3590 H      0
   -3.8540   -3.9023    1.7711 C      0
   -3.0495   -3.3951    2.2905 H      0
   -3.4505   -1.1402    1.3066 C      0
   -4.5584   -1.0170    2.1526 C      0
   -5.5080   -1.4537    1.8615 H      0
   -4.4493   -0.3585    3.3665 C      0
   -5.3126   -0.2860    4.0197 H      0
   -3.2515    0.2013    3.7516 C      0
   -3.1690    0.7021    4.7106 H      0
   -2.1576    0.1357    2.9075 C      0
   -1.2202    0.6012    3.1937 H      0
   -2.2693   -0.5158    1.6801 C      0
   -1.2515   -0.5664    0.5763 C      0
   -0.2495    0.2514    0.5406 N      0
    0.3562   -0.2311   -0.6127 C      0
    1.6883   -0.6323   -0.7197 C      0
    2.3998   -0.3950    0.0643 H      0
    2.0772   -1.4088   -1.8211 C      0
    3.1140   -1.7225   -1.8835 H      0
    1.2010   -1.8330   -2.8231 C      0
    1.5435   -2.4899   -3.6158 H      0
   -0.0900   -1.3557   -2.8159 C      0
   -0.7224   -1.3563   -3.6794 H      0
   -0.1457   -0.4517   -1.8576 C      0
   -1.1000   -0.0931   -2.0054 H      0
   -1.2807   -1.5858   -1.0639 Co     0
   -2.0467   -3.1851   -2.6393 P      0
   -0.9479   -3.8379   -3.9372 C      0
    0.0576   -4.0360   -3.5876 H      0
   -0.8540   -3.1443   -4.7687 H      0
   -1.3504   -4.7670   -4.3352 H      0
   -2.3251   -4.8840   -2.0463 C      0
   -2.4462   -5.5519   -2.8966 H      0
   -3.2408   -4.9532   -1.4645 H      0
   -1.5298   -5.2811   -1.4321 H      0
   -2.8959   -2.2057   -3.9144 C      0
   -3.2560   -1.2624   -3.5169 H      0
   -3.7412   -2.7597   -4.3173 H      0
   -2.2487   -1.9632   -4.7527 H      0
   -0.0214   -3.2591    0.0050 P      0
    0.3592   -2.5155    1.6137 C      0
    0.9759   -3.2003    2.1920 H      0
   -0.5358   -2.3316    2.2022 H      0
    0.9156   -1.5881    1.5153 H      0
   -0.9716   -4.5056    0.9094 C      0
   -1.9053   -4.7650    0.4240 H      0
   -1.2144   -4.1417    1.9038 H      0
   -0.3857   -5.4140    1.0326 H      0
    0.8731   -4.3929   -1.0944 C      0
    1.2426   -5.2289   -0.5043 H      0
    1.7472   -3.9392   -1.5465 H      0
    0.2690   -4.8189   -1.8781 H      0
   -5.4558   -1.8113   -2.3543 C      0
   -5.3276   -2.8575   -2.5999 H      0
   -6.3857   -1.0796   -3.0746 C      0
   -7.0035   -1.5755   -3.8160 H      0
   -2.8603   -3.2280   -0.6067 H      0
   -3.4275   -3.3413   -2.4923 H      0
    1.3379   -2.9586    0.1408 H      0
  1  2  1
  2  3  4
  3  4  1
  3  5  4
  5  6  1
  5  7  4
  7  8  1
  8  9  1
  9 10  4
 10 11  1
 10 12  4
 12 13  1
 12 14  4
 14 15  1
 14 16  4
 16 17  1
 16 18  4
  9 18  4
 18 19  1
  8 20  1
 20 21  4
 21 22  1
 21 23  4
 23 24  1
 23 25  4
 25 26  1
 25 27  4
 27 28  1
 27 29  4
 20 29  4
 29 30  1
 30 31  2
 31 32  1
 32 33  4
 33 34  1
 33 35  4
 35 36  1
 35 37  4
 37 38  1
 37 39  4
 39 40  1
 39 41  4
 32 41  4
 41 42  1
 42 43  1
 30 43  1
 41 43  1
  8 43  1
 43 44  1
 44 45  1
 45 46  1
 45 47  1
 45 48  1
 44 49  1
 49 50  1
 49 51  1
 49 52  1
 44 53  1
 53 54  1
 53 55  1
 53 56  1
 43 57  1
 57 58  1
 58 59  1
 58 60  1
 58 61  1
 57 62  1
 62 63  1
 62 64  1
 62 65  1
 57 66  1
 66 67  1
 66 68  1
 66 69  1
  7 70  4
 70 71  1
 70 72  4
  2 72  4
 72 73  1
  8 74  1
 44 75  1
 57 76  1
M  END
$$$$
