
 OpenBabel09252514433D

 32 34  0  0  0  0  0  0  0  0999 V2000
    1.0388   -0.0493    0.0779 C   0  0  0  0  0  0  0  0  0  0  0  0
    0.5321   -1.3827   -0.4473 C   0  0  0  0  0  0  0  0  0  0  0  0
    1.0388   -2.5042    0.4449 C   0  0  0  0  0  0  0  0  0  0  0  0
    0.1548   -3.3134    1.0887 C   0  0  0  0  0  0  0  0  0  0  0  0
   -0.9879   -1.3827   -0.4473 C   0  0  0  0  0  0  0  0  0  0  0  0
   -1.4779   -0.2982   -1.3101 N   0  0  0  0  0  0  0  0  0  0  0  0
   -1.1708    0.9077   -1.0514 N   0  0  0  0  0  0  0  0  0  0  0  0
   -0.4402    1.1758   -0.0467 N   0  0  0  0  0  2  0  0  0  0  0  0
   -1.4945   -2.7161   -0.9724 C   0  0  0  0  0  0  0  0  0  0  0  0
   -0.9840   -3.8682   -0.5711 C   0  0  0  0  0  0  0  0  0  0  0  0
   -1.6564   -4.9158   -1.3827 C   0  0  0  0  0  0  0  0  0  0  0  0
   -2.4984   -4.2745   -2.1756 C   0  0  0  0  0  0  0  0  0  0  0  0
   -3.4259   -4.9218   -3.1911 C   0  0  0  0  0  0  0  0  0  0  0  0
   -2.3988   -2.9571   -1.9354 Fe  0  0  0  0  0  0  0  0  0  0  0  0
   -1.0388   -1.5864   -2.7089 C   0  0  0  0  0  0  0  0  0  0  0  0
   -0.2424   -0.7838   -3.1618 O   0  0  0  0  0  0  0  0  0  0  0  0
   -1.5161   -1.5437   -0.6906 C   0  0  0  0  0  0  0  0  0  0  0  0
   -0.9991   -0.7160    0.0384 O   0  0  0  0  0  0  0  0  0  0  0  0
   -3.7111   -2.8714   -3.5469 C   0  0  0  0  0  0  0  0  0  0  0  0
   -4.4797   -2.8212   -4.4906 O   0  0  0  0  0  0  0  0  0  0  0  0
    0.6821    0.0999    1.0756 H   0  0  0  0  0  0  0  0  0  0  0  0
    0.6821    0.7401   -0.5502 H   0  0  0  0  0  0  0  0  0  0  0  0
    2.1088   -0.0493    0.0779 H   0  0  0  0  0  0  0  0  0  0  0  0
    0.8888   -1.5319   -1.4450 H   0  0  0  0  0  0  0  0  0  0  0  0
    2.0908   -2.6572    0.5667 H   0  0  0  0  0  0  0  0  0  0  0  0
    0.5114   -4.1028    1.7168 H   0  0  0  0  0  0  0  0  0  0  0  0
   -0.8972   -3.1603    0.9670 H   0  0  0  0  0  0  0  0  0  0  0  0
   -1.3445   -1.2335    0.5505 H   0  0  0  0  0  0  0  0  0  0  0  0
   -1.5108    1.6602   -1.6501 H   0  0  0  0  0  0  0  0  0  0  0  0
   -4.4407   -4.6828   -2.9505 H   0  0  0  0  0  0  0  0  0  0  0  0
   -3.1954   -4.5548   -4.1694 H   0  0  0  0  0  0  0  0  0  0  0  0
   -3.2944   -5.9834   -3.1683 H   0  0  0  0  0  0  0  0  0  0  0  0
  1  2  1  0  0  0  0
  1 21  1  0  0  0  0
  1 22  1  0  0  0  0
  1 23  1  0  0  0  0
  2  3  1  0  0  0  0
  2  5  1  0  0  0  0
  2 24  1  0  0  0  0
  3  4  2  0  0  0  0
  3 25  1  0  0  0  0
  4 26  1  0  0  0  0
  4 27  1  0  0  0  0
  5  6  1  0  0  0  0
  5  9  1  0  0  0  0
  5 28  1  0  0  0  0
  6  7  2  0  0  0  0
  7  8  2  0  0  0  0
  7 29  1  0  0  0  0
  9 10  2  0  0  0  0
  9 14  1  0  0  0  0
 10 11  1  0  0  0  0
 10 14  1  0  0  0  0
 11 12  2  0  0  0  0
 11 14  1  0  0  0  0
 12 13  1  0  0  0  0
 12 14  1  0  0  0  0
 13 30  1  0  0  0  0
 13 31  1  0  0  0  0
 13 32  1  0  0  0  0
 14 15  1  0  0  0  0
 14 17  1  0  0  0  0
 14 19  1  0  0  0  0
 15 16  3  0  0  0  0
 17 18  3  0  0  0  0
 19 20  3  0  0  0  0
M  END
$$$$
