
     RDKit          3D

 42 41  0  0  0  0  0  0  0  0999 V2000
   -0.1540    1.8997    0.3123 C   0  0  0  0  0  0  0  0  0  0  0  0
   -0.0509    0.1759    0.8292 Pt  0  0  0  0  0  6  0  0  0  0  0  0
   -1.0972    0.5780    2.4896 C   0  0  0  0  0  0  0  0  0  0  0  0
   -0.1648   -1.5915    1.2169 C   0  0  0  0  0  0  0  0  0  0  0  0
    1.4585    0.2701    1.9701 N   0  0  0  0  0  0  0  0  0  0  0  0
    1.8502    1.1088    2.6489 N   0  0  0  0  0  4  0  0  0  0  0  0
    2.3579    2.0869    3.1293 N   0  0  0  0  0  2  0  0  0  0  0  0
    1.6350   -0.1050   -0.2554 P   0  0  0  0  0  4  0  0  0  0  0  0
    2.5864   -1.6581   -0.1810 C   0  0  0  0  0  0  0  0  0  0  0  0
    2.9082    1.2700   -0.3545 C   0  0  0  0  0  0  0  0  0  0  0  0
    1.2434   -0.1124   -2.0380 C   0  0  0  0  0  0  0  0  0  0  0  0
   -1.5810   -0.1958   -0.6119 P   0  0  0  0  0  4  0  0  0  0  0  0
   -3.1395   -0.5827    0.2552 C   0  0  0  0  0  0  0  0  0  0  0  0
   -2.0219    1.0747   -1.7118 C   0  0  0  0  0  0  0  0  0  0  0  0
   -1.2471   -1.5969   -1.6711 C   0  0  0  0  0  0  0  0  0  0  0  0
    0.1896    2.3015   -0.6743 H   0  0  0  0  0  0  0  0  0  0  0  0
    0.4344    2.6895    0.9176 H   0  0  0  0  0  0  0  0  0  0  0  0
   -1.1011    2.5330    0.3682 H   0  0  0  0  0  0  0  0  0  0  0  0
   -0.9400    1.5519    2.9637 H   0  0  0  0  0  0  0  0  0  0  0  0
   -2.1471    0.5994    2.2121 H   0  0  0  0  0  0  0  0  0  0  0  0
   -1.0486   -0.0981    3.3042 H   0  0  0  0  0  0  0  0  0  0  0  0
   -1.1458   -2.1107    1.5175 H   0  0  0  0  0  0  0  0  0  0  0  0
    0.3672   -2.0721    2.0813 H   0  0  0  0  0  0  0  0  0  0  0  0
    0.1284   -2.4204    0.5025 H   0  0  0  0  0  0  0  0  0  0  0  0
    3.6327   -1.4283   -0.2525 H   0  0  0  0  0  0  0  0  0  0  0  0
    2.1914   -2.4658   -0.7918 H   0  0  0  0  0  0  0  0  0  0  0  0
    2.4322   -2.0037    0.8905 H   0  0  0  0  0  0  0  0  0  0  0  0
    2.4054    2.1827   -0.7036 H   0  0  0  0  0  0  0  0  0  0  0  0
    3.3421    1.4001    0.6628 H   0  0  0  0  0  0  0  0  0  0  0  0
    3.6472    0.8397   -1.0120 H   0  0  0  0  0  0  0  0  0  0  0  0
    0.2885    0.4299   -2.2268 H   0  0  0  0  0  0  0  0  0  0  0  0
    1.9592    0.4325   -2.6669 H   0  0  0  0  0  0  0  0  0  0  0  0
    1.2509   -1.1153   -2.5107 H   0  0  0  0  0  0  0  0  0  0  0  0
   -3.7837   -0.9754   -0.5222 H   0  0  0  0  0  0  0  0  0  0  0  0
   -3.5501    0.3032    0.7678 H   0  0  0  0  0  0  0  0  0  0  0  0
   -2.9495   -1.3940    0.9711 H   0  0  0  0  0  0  0  0  0  0  0  0
   -2.0297    0.7006   -2.7224 H   0  0  0  0  0  0  0  0  0  0  0  0
   -3.0943    1.4465   -1.5573 H   0  0  0  0  0  0  0  0  0  0  0  0
   -1.4041    2.0041   -1.7377 H   0  0  0  0  0  0  0  0  0  0  0  0
   -2.1334   -2.3119   -1.6796 H   0  0  0  0  0  0  0  0  0  0  0  0
   -0.4146   -2.2503   -1.3796 H   0  0  0  0  0  0  0  0  0  0  0  0
   -1.1103   -1.3903   -2.7495 H   0  0  0  0  0  0  0  0  0  0  0  0
  1  2  1  0
  2  3  1  0
  2  4  1  0
  2  5  1  0
  5  6  2  0
  6  7  2  0
  2  8  1  0
  8  9  1  0
  8 10  1  0
  8 11  1  0
  2 12  1  0
 12 13  1  0
 12 14  1  0
 12 15  1  0
  1 16  1  0
  1 17  1  0
  1 18  1  0
  3 19  1  0
  3 20  1  0
  3 21  1  0
  4 22  1  0
  4 23  1  0
  4 24  1  0
  9 25  1  0
  9 26  1  0
  9 27  1  0
 10 28  1  0
 10 29  1  0
 10 30  1  0
 11 31  1  0
 11 32  1  0
 11 33  1  0
 13 34  1  0
 13 35  1  0
 13 36  1  0
 14 37  1  0
 14 38  1  0
 14 39  1  0
 15 40  1  0
 15 41  1  0
 15 42  1  0
M  CHG  2   6   1   7  -1
M  RAD  2   8   2  12   2
M  END
