
     RDKit          3D

 42 41  0  0  0  0  0  0  0  0999 V2000
    0.2607    1.0208    1.6081 C   0  0  0  0  0  0  0  0  0  0  0  0
    0.0223    0.0607    0.0384 Pt  0  0  0  0  0  6  0  0  0  0  0  0
   -0.2345   -0.2204   -1.7399 C   0  0  0  0  0  0  0  0  0  0  0  0
   -0.0353   -1.6459    0.8492 C   0  0  0  0  0  0  0  0  0  0  0  0
    0.3518    1.6606   -0.4608 N   0  0  0  0  0  0  0  0  0  0  0  0
    0.0406    2.6759   -0.9030 N   0  0  0  0  0  4  0  0  0  0  0  0
   -0.4635    3.7512   -1.0528 N   0  0  0  0  0  2  0  0  0  0  0  0
    2.0916   -0.1908   -0.3202 P   0  0  0  0  0  4  0  0  0  0  0  0
    2.9953   -0.3482    1.2422 C   0  0  0  0  0  0  0  0  0  0  0  0
    2.4548   -1.8521   -1.0801 C   0  0  0  0  0  0  0  0  0  0  0  0
    2.9132    0.8703   -1.3739 C   0  0  0  0  0  0  0  0  0  0  0  0
   -2.0854    0.1817    0.2117 P   0  0  0  0  0  4  0  0  0  0  0  0
   -2.9544   -1.2391   -0.5479 C   0  0  0  0  0  0  0  0  0  0  0  0
   -2.7784    1.6421   -0.4689 C   0  0  0  0  0  0  0  0  0  0  0  0
   -2.6214    0.1216    1.9163 C   0  0  0  0  0  0  0  0  0  0  0  0
   -0.2661    1.9349    1.9823 H   0  0  0  0  0  0  0  0  0  0  0  0
    1.2517    1.0798    2.1563 H   0  0  0  0  0  0  0  0  0  0  0  0
   -0.1523    0.4654    2.5472 H   0  0  0  0  0  0  0  0  0  0  0  0
   -0.4720   -1.3205   -1.9865 H   0  0  0  0  0  0  0  0  0  0  0  0
   -1.0598    0.1828   -2.4107 H   0  0  0  0  0  0  0  0  0  0  0  0
    0.5187   -0.1788   -2.5837 H   0  0  0  0  0  0  0  0  0  0  0  0
    0.8375   -1.9914    1.4887 H   0  0  0  0  0  0  0  0  0  0  0  0
   -0.1674   -2.4929    0.1814 H   0  0  0  0  0  0  0  0  0  0  0  0
   -0.7559   -1.8654    1.6708 H   0  0  0  0  0  0  0  0  0  0  0  0
    3.9454   -0.7731    1.0321 H   0  0  0  0  0  0  0  0  0  0  0  0
    2.4539   -0.8743    2.0273 H   0  0  0  0  0  0  0  0  0  0  0  0
    3.1868    0.6857    1.6575 H   0  0  0  0  0  0  0  0  0  0  0  0
    2.0263   -2.5864   -0.3548 H   0  0  0  0  0  0  0  0  0  0  0  0
    1.9328   -1.9615   -2.0345 H   0  0  0  0  0  0  0  0  0  0  0  0
    3.5278   -1.8880   -1.0763 H   0  0  0  0  0  0  0  0  0  0  0  0
    2.3991    1.8466   -1.6572 H   0  0  0  0  0  0  0  0  0  0  0  0
    3.8485    1.2534   -0.9165 H   0  0  0  0  0  0  0  0  0  0  0  0
    3.2324    0.5173   -2.4000 H   0  0  0  0  0  0  0  0  0  0  0  0
   -3.9266   -0.8924   -0.8446 H   0  0  0  0  0  0  0  0  0  0  0  0
   -2.4358   -1.5768   -1.4798 H   0  0  0  0  0  0  0  0  0  0  0  0
   -2.9539   -2.1191    0.1229 H   0  0  0  0  0  0  0  0  0  0  0  0
   -2.3314    1.7997   -1.4947 H   0  0  0  0  0  0  0  0  0  0  0  0
   -2.6050    2.5218    0.1483 H   0  0  0  0  0  0  0  0  0  0  0  0
   -3.8226    1.4334   -0.6587 H   0  0  0  0  0  0  0  0  0  0  0  0
   -3.5748   -0.3417    1.9979 H   0  0  0  0  0  0  0  0  0  0  0  0
   -1.9354   -0.4792    2.5862 H   0  0  0  0  0  0  0  0  0  0  0  0
   -2.6593    1.1323    2.3803 H   0  0  0  0  0  0  0  0  0  0  0  0
  1  2  1  0
  2  3  1  0
  2  4  1  0
  2  5  1  0
  5  6  2  0
  6  7  2  0
  2  8  1  0
  8  9  1  0
  8 10  1  0
  8 11  1  0
  2 12  1  0
 12 13  1  0
 12 14  1  0
 12 15  1  0
  1 16  1  0
  1 17  1  0
  1 18  1  0
  3 19  1  0
  3 20  1  0
  3 21  1  0
  4 22  1  0
  4 23  1  0
  4 24  1  0
  9 25  1  0
  9 26  1  0
  9 27  1  0
 10 28  1  0
 10 29  1  0
 10 30  1  0
 11 31  1  0
 11 32  1  0
 11 33  1  0
 13 34  1  0
 13 35  1  0
 13 36  1  0
 14 37  1  0
 14 38  1  0
 14 39  1  0
 15 40  1  0
 15 41  1  0
 15 42  1  0
M  CHG  2   6   1   7  -1
M  RAD  2   8   2  12   2
M  END
