
     RDKit          3D

 57 60  0  0  0  0  0  0  0  0999 V2000
   -5.5630    0.3866   -1.8805 C   0  0  0  0  0  0  0  0  0  0  0  0
   -4.4246    1.1856   -1.9723 C   0  0  0  0  0  0  0  0  0  0  0  0
   -3.3753    1.0233   -1.0624 C   0  0  0  0  0  0  0  0  0  0  0  0
   -3.4486    0.0398   -0.0664 C   0  0  0  0  0  0  0  0  0  0  0  0
   -2.4313   -0.1574    0.9591 N   0  0  0  0  0  0  0  0  0  0  0  0
   -1.0756    0.2269    0.5787 C   0  0  0  0  0  0  0  0  0  0  0  0
   -0.3138   -0.6858   -0.0631 C   0  0  0  0  0  0  0  0  0  0  0  0
    1.0517   -0.4189   -0.4012 C   0  0  0  0  0  0  0  0  0  0  0  0
    2.2042   -0.2084   -0.6708 C   0  0  0  0  0  0  0  0  0  0  0  0
    3.5805    0.0526   -0.9770 C   0  0  0  0  0  0  0  0  0  0  0  0
    3.9648    0.1182   -2.3218 C   0  0  0  0  0  0  0  0  0  0  0  0
    5.2925    0.3757   -2.6599 C   0  0  0  0  0  0  0  0  0  0  0  0
    6.2375    0.5676   -1.6555 C   0  0  0  0  0  0  0  0  0  0  0  0
    5.8601    0.5023   -0.3102 C   0  0  0  0  0  0  0  0  0  0  0  0
    4.5306    0.2439    0.0426 C   0  0  0  0  0  0  0  0  0  0  0  0
    4.0685    0.1645    1.3314 O   0  0  0  0  0  0  0  0  0  0  0  0
    5.0151    0.3040    2.3818 C   0  0  0  0  0  0  0  0  0  0  0  0
   -0.7687   -2.4702   -0.5454 Si  0  0  0  0  0  4  0  0  0  0  0  0
   -1.7482   -2.4830   -2.1480 C   0  0  0  0  0  0  0  0  0  0  0  0
   -1.7169   -3.3411    0.8220 C   0  0  0  0  0  0  0  0  0  0  0  0
    0.8012   -3.5002   -0.8445 C   0  0  0  0  0  0  0  0  0  0  0  0
   -0.6993    1.5640    1.0967 C   0  0  0  0  0  0  0  0  0  0  0  0
    0.2818    2.4580    0.6838 C   0  0  0  0  0  0  0  0  0  0  0  0
    0.3926    3.7071    1.3148 C   0  0  0  0  0  0  0  0  0  0  0  0
   -0.4859    4.0763    2.3427 C   0  0  0  0  0  0  0  0  0  0  0  0
   -1.4899    3.2024    2.7487 C   0  0  0  0  0  0  0  0  0  0  0  0
   -1.5570    1.9707    2.1146 C   0  0  0  0  0  0  0  0  0  0  0  0
   -2.7698    0.7519    2.4181 S   0  0  0  0  0  6  0  0  0  0  0  0
   -2.3197   -0.0102    3.5639 O   0  0  0  0  0  0  0  0  0  0  0  0
   -4.0670    1.3914    2.3664 O   0  0  0  0  0  0  0  0  0  0  0  0
   -4.6123   -0.7345    0.0352 C   0  0  0  0  0  0  0  0  0  0  0  0
   -5.6602   -0.5700   -0.8726 C   0  0  0  0  0  0  0  0  0  0  0  0
   -6.3804    0.5187   -2.5855 H   0  0  0  0  0  0  0  0  0  0  0  0
   -4.3573    1.9442   -2.7483 H   0  0  0  0  0  0  0  0  0  0  0  0
   -2.5138    1.6765   -1.1546 H   0  0  0  0  0  0  0  0  0  0  0  0
    3.2304   -0.0312   -3.1104 H   0  0  0  0  0  0  0  0  0  0  0  0
    5.5882    0.4274   -3.7047 H   0  0  0  0  0  0  0  0  0  0  0  0
    7.2740    0.7689   -1.9177 H   0  0  0  0  0  0  0  0  0  0  0  0
    6.6298    0.6595    0.4381 H   0  0  0  0  0  0  0  0  0  0  0  0
    5.4569    1.3059    2.3820 H   0  0  0  0  0  0  0  0  0  0  0  0
    4.4847    0.1738    3.3310 H   0  0  0  0  0  0  0  0  0  0  0  0
    5.7868   -0.4707    2.3249 H   0  0  0  0  0  0  0  0  0  0  0  0
   -1.2045   -1.9524   -2.9345 H   0  0  0  0  0  0  0  0  0  0  0  0
   -1.9090   -3.5121   -2.4849 H   0  0  0  0  0  0  0  0  0  0  0  0
   -2.7269   -2.0147   -2.0280 H   0  0  0  0  0  0  0  0  0  0  0  0
   -1.1929   -3.2398    1.7765 H   0  0  0  0  0  0  0  0  0  0  0  0
   -1.8052   -4.4095    0.5977 H   0  0  0  0  0  0  0  0  0  0  0  0
   -2.7274   -2.9446    0.9356 H   0  0  0  0  0  0  0  0  0  0  0  0
    1.4394   -3.4931    0.0442 H   0  0  0  0  0  0  0  0  0  0  0  0
    0.5294   -4.5367   -1.0665 H   0  0  0  0  0  0  0  0  0  0  0  0
    1.3680   -3.1062   -1.6929 H   0  0  0  0  0  0  0  0  0  0  0  0
    0.9585    2.2278   -0.1316 H   0  0  0  0  0  0  0  0  0  0  0  0
    1.1660    4.4023    0.9936 H   0  0  0  0  0  0  0  0  0  0  0  0
   -0.3891    5.0520    2.8137 H   0  0  0  0  0  0  0  0  0  0  0  0
   -2.1955    3.4725    3.5276 H   0  0  0  0  0  0  0  0  0  0  0  0
   -4.7094   -1.4703    0.8304 H   0  0  0  0  0  0  0  0  0  0  0  0
   -6.5548   -1.1811   -0.7843 H   0  0  0  0  0  0  0  0  0  0  0  0
  1  2  2  0
  2  3  1  0
  3  4  2  0
  4  5  1  0
  5  6  1  0
  6  7  2  0
  7  8  1  0
  8  9  3  0
  9 10  1  0
 10 11  2  0
 11 12  1  0
 12 13  2  0
 13 14  1  0
 14 15  2  0
 15 16  1  0
 16 17  1  0
  7 18  1  0
 18 19  1  0
 18 20  1  0
 18 21  1  0
  6 22  1  0
 22 23  2  0
 23 24  1  0
 24 25  2  0
 25 26  1  0
 26 27  2  0
 27 28  1  0
 28 29  2  0
 28 30  2  0
  4 31  1  0
 31 32  2  0
 32  1  1  0
 28  5  1  0
 15 10  1  0
 27 22  1  0
  1 33  1  0
  2 34  1  0
  3 35  1  0
 11 36  1  0
 12 37  1  0
 13 38  1  0
 14 39  1  0
 17 40  1  0
 17 41  1  0
 17 42  1  0
 19 43  1  0
 19 44  1  0
 19 45  1  0
 20 46  1  0
 20 47  1  0
 20 48  1  0
 21 49  1  0
 21 50  1  0
 21 51  1  0
 23 52  1  0
 24 53  1  0
 25 54  1  0
 26 55  1  0
 31 56  1  0
 32 57  1  0
M  END
