
  --CCDC--081225    3D                              

 46 54  0  0  0  0  0  0  0  0999 V2000
   -0.8746    0.3768    1.4596 Cl     0
    0.6013    2.1162    0.7136 Ir     0
   -1.2982    2.7030    0.0226 C      0
   -0.6794    1.9644   -0.9066 C      0
   -0.6532    1.2462   -2.2028 C      0
   -1.3366    1.2124   -3.3922 C      0
   -0.9701    0.2350   -4.3121 C      0
    0.0104   -0.6888   -4.0486 C      0
    0.7084   -0.6849   -2.8132 C      0
    1.7005   -1.5997   -2.4006 C      0
    2.2570   -1.4650   -1.1616 C      0
    1.8997   -0.4413   -0.2904 C      0
    0.9413    0.5093   -0.6314 C      0
    0.3618    0.3309   -1.9028 C      0
    2.6097    2.1734    0.9114 C      0
    3.8808    2.7005    1.5392 C      0
    1.8572    1.7606    2.1822 C      0
    2.0209    0.4895    2.9873 C      0
    0.8810    2.8832    2.5146 C      0
   -0.1266    2.8681    3.6426 C      0
    0.9762    3.9333    1.4080 C      0
    0.0611    5.1283    1.2563 C      0
    1.9879    3.4618    0.3667 C      0
    2.2814    4.1154   -0.9653 C      0
   -2.2152    3.2231    0.2789 H      0
   -2.1325    1.9182   -3.6059 H      0
   -1.4823    0.1969   -5.2678 H      0
    0.2509   -1.4389   -4.7947 H      0
    2.0123   -2.4046   -3.0579 H      0
    3.0108   -2.1793   -0.8470 H      0
    2.4011   -0.3828    0.6665 H      0
    4.7489    2.1651    1.1603 H      0
    3.8549    2.5820    2.6204 H      0
    4.0110    3.7576    1.3172 H      0
    1.6656    0.6300    4.0060 H      0
    3.0673    0.1947    3.0317 H      0
    1.4590   -0.3285    2.5419 H      0
    0.2729    2.3460    4.5095 H      0
   -1.0413    2.3651    3.3359 H      0
   -0.3820    3.8814    3.9451 H      0
   -0.3468    5.1800    0.2491 H      0
    0.6014    6.0529    1.4486 H      0
   -0.7693    5.0698    1.9567 H      0
    1.6091    3.7416   -1.7348 H      0
    3.3028    3.9102   -1.2788 H      0
    2.1567    5.1943   -0.9013 H      0
  1  2  1
  2  3  1
  3  4  2
  2  4  1
  4  5  1
  5  6  4
  6  7  4
  7  8  4
  8  9  4
  9 10  4
 10 11  4
 11 12  4
 12 13  4
  2 13  1
 13 14  4
  5 14  4
  9 14  4
  2 15  1
 15 16  1
 15 17  4
  2 17  1
 17 18  1
 17 19  4
  2 19  1
 19 20  1
 19 21  4
  2 21  1
 21 22  1
 21 23  4
  2 23  1
 15 23  4
 23 24  1
  3 25  1
  6 26  1
  7 27  1
  8 28  1
 10 29  1
 11 30  1
 12 31  1
 16 32  1
 16 33  1
 16 34  1
 18 35  1
 18 36  1
 18 37  1
 20 38  1
 20 39  1
 20 40  1
 22 41  1
 22 42  1
 22 43  1
 24 44  1
 24 45  1
 24 46  1
M  END
$$$$
