
     RDKit          3D

 26 26  0  0  0  0  0  0  0  0999 V2000
   -1.1629   -0.5035   -0.7102 C   0  0  0  0  0  0  0  0  0  0  0  0
   -2.5124   -0.7610   -0.9780 C   0  0  0  0  0  0  0  0  0  0  0  0
   -3.5043   -0.0730   -0.2655 C   0  0  0  0  0  0  0  0  0  0  0  0
   -4.9211   -0.3418   -0.5450 N   0  0  0  0  0  4  0  0  0  0  0  0
   -5.7663    0.2874    0.1067 O   0  0  0  0  0  1  0  0  0  0  0  0
   -5.1863   -1.1822   -1.4162 O   0  0  0  0  0  0  0  0  0  0  0  0
   -3.1545    0.8686    0.7108 C   0  0  0  0  0  0  0  0  0  0  0  0
   -1.8036    1.1202    0.9724 C   0  0  0  0  0  0  0  0  0  0  0  0
   -0.8006    0.4379    0.2657 C   0  0  0  0  0  0  0  0  0  0  0  0
    0.6199    0.7484    0.5889 C   0  0  0  0  0  0  0  0  0  0  0  0
    0.9517    1.5636    1.4340 O   0  0  0  0  0  0  0  0  0  0  0  0
    1.4542    0.0052   -0.1783 O   0  0  0  0  0  0  0  0  0  0  0  0
    2.8637    0.2083    0.0381 C   0  0  0  0  0  0  0  0  0  0  0  0
    3.5769   -0.1955   -1.2464 C   0  0  0  0  0  0  0  0  0  0  0  0
    3.3290   -0.6519    1.2074 C   0  0  0  0  0  0  0  0  0  0  0  0
   -0.4044   -1.0456   -1.2716 H   0  0  0  0  0  0  0  0  0  0  0  0
   -2.7698   -1.4954   -1.7394 H   0  0  0  0  0  0  0  0  0  0  0  0
   -3.9125    1.4113    1.2729 H   0  0  0  0  0  0  0  0  0  0  0  0
   -1.5347    1.8533    1.7326 H   0  0  0  0  0  0  0  0  0  0  0  0
    3.0734    1.2669    0.2341 H   0  0  0  0  0  0  0  0  0  0  0  0
    3.3651   -1.2395   -1.5031 H   0  0  0  0  0  0  0  0  0  0  0  0
    3.2217    0.4123   -2.0857 H   0  0  0  0  0  0  0  0  0  0  0  0
    4.6601   -0.0680   -1.1575 H   0  0  0  0  0  0  0  0  0  0  0  0
    4.4078   -0.5565    1.3646 H   0  0  0  0  0  0  0  0  0  0  0  0
    3.0904   -1.7075    1.0362 H   0  0  0  0  0  0  0  0  0  0  0  0
    2.8198   -0.3620    2.1323 H   0  0  0  0  0  0  0  0  0  0  0  0
  1  2  2  0
  2  3  1  0
  3  4  1  0
  4  5  1  0
  4  6  2  0
  3  7  2  0
  7  8  1  0
  8  9  2  0
  9 10  1  0
 10 11  2  0
 10 12  1  0
 12 13  1  0
 13 14  1  0
 13 15  1  0
  9  1  1  0
  1 16  1  0
  2 17  1  0
  7 18  1  0
  8 19  1  0
 13 20  1  0
 14 21  1  0
 14 22  1  0
 14 23  1  0
 15 24  1  0
 15 25  1  0
 15 26  1  0
M  CHG  2   4   1   5  -1
M  END
