
  --CCDC--092525    3D                              

 39 44  0  0  0  0  0  0  0  0999 V2000
   -0.0582    0.3595   -0.8441 C      0
    1.7625   -0.0007   -0.6232 Si     0
    1.8620   -1.4301    0.5771 C      0
    2.3577   -0.6626   -2.2672 C      0
    2.6997    1.4435   -0.0705 C      0
    3.7418    1.9416   -0.8517 C      0
    5.2877    2.6804   -2.0107 Cr     0
    5.5508    1.4189   -0.3907 C      0
    5.6945    0.7224    0.4997 O      0
    5.9115    3.3056   -0.1396 C      0
    6.3051    3.6956    0.8563 O      0
    5.2273    3.6067   -3.5693 C      0
    4.3656    4.3058   -2.3024 C      0
    4.8999    4.0737   -3.4655 C      0
    5.8349    2.7304   -3.7407 C      0
    6.3823    1.3982   -2.8736 C      0
    6.1590    2.2570   -3.8209 C      0
    2.3150    2.2069    1.5226 Si     0
    0.8842    1.3830    2.4023 C      0
    1.8394    4.0086    1.3663 C      0
    3.7516    2.1581    2.7169 C      0
   -0.2083    1.3625   -1.2389 H      0
   -0.5830    0.2858    0.1056 H      0
   -0.5112   -0.3482   -1.5338 H      0
    2.7646   -1.3649    1.1808 H      0
    1.8776   -2.3793    0.0453 H      0
    1.0050   -1.4313    1.2473 H      0
    1.7720   -1.5288   -2.5685 H      0
    3.4013   -0.9636   -2.2070 H      0
    2.2672    0.0942   -3.0436 H      0
    0.0174    1.3156    1.7494 H      0
    0.6045    1.9516    3.2816 H      0
    1.1398    0.3779    2.7331 H      0
    1.0084    4.1328    0.6753 H      0
    2.6743    4.5943    1.0083 H      0
    1.5429    4.4132    2.3307 H      0
    4.0780    1.1337    2.8848 H      0
    3.4703    2.5859    3.6766 H      0
    4.5960    2.7232    2.3279 H      0
  1  2  1
  2  3  1
  2  4  1
  2  5  1
  5  6  4
  6  7  4
  7  8  1
  8  9  3
  7 10  1
 10 11  3
  7 12  1
 12 13  4
  7 13  1
 13 14  4
  7 14  1
 14 15  4
  7 15  1
 15 16  4
  7 16  1
 16 17  4
  7 17  1
 12 17  4
  5 18  1
 18 19  1
 18 20  1
 18 21  1
  1 22  1
  1 23  1
  1 24  1
  3 25  1
  3 26  1
  3 27  1
  4 28  1
  4 29  1
  4 30  1
 19 31  1
 19 32  1
 19 33  1
 20 34  1
 20 35  1
 20 36  1
 21 37  1
 21 38  1
 21 39  1
M  END
$$$$
