
 OpenBabel09252516513D

 43 45  0  0  0  0  0  0  0  0999 V2000
    0.9409   -0.0560    0.0580 C   0  0  0  0  0  0  0  0  0  0  0  0
    0.4342    1.3631   -0.1411 C   0  0  0  0  0  0  0  0  0  0  0  0
    0.9242    1.8827   -1.4259 N   0  0  0  0  0  4  0  0  0  0  0  0
    0.2342    0.6815   -2.9641 Pt  0  0  0  0  0  0  0  0  0  0  0  0
    0.9593   -0.6438   -2.8940 N   0  0  0  0  0  4  0  0  0  0  0  0
   -0.4558   -1.7887   -2.6627 C   0  0  0  0  0  0  0  0  0  0  0  0
   -0.5817   -2.9133   -3.6775 C   0  0  0  0  0  0  0  0  0  0  0  0
   -1.7538   -0.5699   -2.6752 C   0  0  0  0  0  0  0  0  0  0  0  0
   -3.0319   -0.6820   -2.5576 C   0  0  0  0  0  0  0  0  0  0  0  0
   -3.8550    0.4523   -2.5946 C   0  0  0  0  0  0  0  0  0  0  0  0
   -3.2585    1.7110   -2.7754 C   0  0  0  0  0  0  0  0  0  0  0  0
   -1.9349    1.8159   -2.8960 C   0  0  0  0  0  0  0  0  0  0  0  0
   -1.1035    0.6594   -2.8505 C   0  0  0  0  0  0  0  0  0  0  0  0
    0.6356    1.3654   -4.8763 N   0  0  0  0  0  0  0  0  0  0  0  0
    0.2372    0.6710   -5.9203 C   0  0  0  0  0  0  0  0  0  0  0  0
   -0.1477    0.0003   -6.9289 O   0  0  0  0  0  0  0  0  0  0  0  0
   -1.0858    1.3631   -0.1411 C   0  0  0  0  0  0  0  0  0  0  0  0
   -1.8095    0.1404   -0.0685 C   0  0  0  0  0  0  0  0  0  0  0  0
   -3.1818    0.1332   -0.3673 C   0  0  0  0  0  0  0  0  0  0  0  0
   -3.8380    1.2538   -0.4390 C   0  0  0  0  0  0  0  0  0  0  0  0
   -3.1800    2.4692   -0.2079 C   0  0  0  0  0  0  0  0  0  0  0  0
   -1.7644    2.5097   -0.2091 C   0  0  0  0  0  0  0  0  0  0  0  0
    0.5842   -0.6769   -0.7371 H   0  0  0  0  0  0  0  0  0  0  0  0
    0.5842   -0.4342    0.9933 H   0  0  0  0  0  0  0  0  0  0  0  0
    2.0109   -0.0560    0.0580 H   0  0  0  0  0  0  0  0  0  0  0  0
    0.7909    1.9840    0.6541 H   0  0  0  0  0  0  0  0  0  0  0  0
    0.5842    2.8350   -1.5595 H   0  0  0  0  0  0  0  0  0  0  0  0
    1.9442    1.8827   -1.4259 H   0  0  0  0  0  0  0  0  0  0  0  0
    1.5451   -0.8507   -3.7029 H   0  0  0  0  0  0  0  0  0  0  0  0
    1.6044   -0.6785   -2.1047 H   0  0  0  0  0  0  0  0  0  0  0  0
   -0.4034   -2.3172   -1.7338 H   0  0  0  0  0  0  0  0  0  0  0  0
    0.2749   -3.5510   -3.6113 H   0  0  0  0  0  0  0  0  0  0  0  0
   -1.4655   -3.4808   -3.4732 H   0  0  0  0  0  0  0  0  0  0  0  0
   -0.6432   -2.4997   -4.6624 H   0  0  0  0  0  0  0  0  0  0  0  0
   -3.4694   -1.6502   -2.4305 H   0  0  0  0  0  0  0  0  0  0  0  0
   -4.9157    0.3611   -2.4873 H   0  0  0  0  0  0  0  0  0  0  0  0
   -3.8687    2.5890   -2.8164 H   0  0  0  0  0  0  0  0  0  0  0  0
   -1.4914    2.7805   -3.0287 H   0  0  0  0  0  0  0  0  0  0  0  0
   -1.3130   -0.7653    0.2111 H   0  0  0  0  0  0  0  0  0  0  0  0
   -3.6876   -0.7945   -0.5361 H   0  0  0  0  0  0  0  0  0  0  0  0
   -4.8817    1.2477   -0.6748 H   0  0  0  0  0  0  0  0  0  0  0  0
   -3.7438    3.3613   -0.0316 H   0  0  0  0  0  0  0  0  0  0  0  0
   -1.2475    3.4449   -0.2636 H   0  0  0  0  0  0  0  0  0  0  0  0
  1  2  1  0  0  0  0
  1 23  1  0  0  0  0
  1 24  1  0  0  0  0
  1 25  1  0  0  0  0
  2  3  1  0  0  0  0
  2 17  1  0  0  0  0
  2 26  1  0  0  0  0
  3  4  1  0  0  0  0
  3 27  1  0  0  0  0
  3 28  1  0  0  0  0
  4  5  1  0  0  0  0
  4 13  1  0  0  0  0
  4 14  1  0  0  0  0
  5  6  1  0  0  0  0
  5 29  1  0  0  0  0
  5 30  1  0  0  0  0
  6  7  1  0  0  0  0
  6  8  1  0  0  0  0
  6 31  1  0  0  0  0
  7 32  1  0  0  0  0
  7 33  1  0  0  0  0
  7 34  1  0  0  0  0
  8  9  1  0  0  0  0
  8 13  2  0  0  0  0
  9 10  2  0  0  0  0
  9 35  1  0  0  0  0
 10 11  1  0  0  0  0
 10 36  1  0  0  0  0
 11 12  2  0  0  0  0
 11 37  1  0  0  0  0
 12 13  1  0  0  0  0
 12 38  1  0  0  0  0
 14 15  2  0  0  0  0
 15 16  2  0  0  0  0
 17 18  1  0  0  0  0
 17 22  2  0  0  0  0
 18 19  2  0  0  0  0
 18 39  1  0  0  0  0
 19 20  1  0  0  0  0
 19 40  1  0  0  0  0
 20 21  2  0  0  0  0
 20 41  1  0  0  0  0
 21 22  1  0  0  0  0
 21 42  1  0  0  0  0
 22 43  1  0  0  0  0
M  END
$$$$
