
 OpenBabel09252516493D

 71 77  0  0  0  0  0  0  0  0999 V2000
    0.9449   -0.0553    0.0625 C   0  0  0  0  0  0  0  0  0  0  0  0
    0.3416    0.6165   -1.5062 S   0  0  0  0  0  0  0  0  0  0  0  0
   -1.4684    0.6165   -1.5062 C   0  0  0  0  0  0  0  0  0  0  0  0
    0.8517    2.0492   -1.6775 O   0  0  0  0  0  0  0  0  0  0  0  0
    0.2188    3.4178   -3.8201 U   0  3  0  0  0  0  0  0  0  0  0  0
    1.9622    1.6808   -4.7189 O   0  0  0  0  0  0  0  0  0  0  0  0
    2.3920    1.7408   -6.0709 C   0  0  0  0  0  0  0  0  0  0  0  0
    3.2376    0.8982   -6.5069 O   0  0  0  0  0  0  0  0  0  0  0  0
    3.6498   -2.0107   -2.9391 C   0  0  0  0  0  0  0  0  0  0  0  0
    2.6780   -1.1520   -2.2469 N   0  0  0  0  0  0  0  0  0  0  0  0
    1.2297   -1.5845   -2.0159 C   0  0  0  0  0  0  0  0  0  0  0  0
    0.4446   -1.4717   -3.3238 C   0  0  0  0  0  0  0  0  0  0  0  0
   -0.7733   -0.5708   -3.1154 N   0  0  0  0  0  4  0  0  0  0  0  0
   -0.4037    0.8782   -3.4393 C   0  0  0  0  0  0  0  0  0  0  0  0
   -0.6795    1.7616   -2.2199 C   0  0  0  0  0  0  0  0  0  0  0  0
    0.0076    3.1167   -2.3941 N   0  0  0  0  0  0  0  0  0  0  0  0
    1.3283    3.1691   -1.6252 C   0  0  0  0  0  0  0  0  0  0  0  0
    2.1710    1.9311   -1.9340 C   0  0  0  0  0  0  0  0  0  0  0  0
    3.3437    1.8574   -0.9533 N   0  0  0  0  0  0  0  0  0  0  0  0
    4.1493    0.5818   -1.2065 C   0  0  0  0  0  0  0  0  0  0  0  0
    3.2764   -0.6437   -0.9338 C   0  0  0  0  0  0  0  0  0  0  0  0
   -3.2070    2.8287   -2.8178 C   0  0  0  0  0  0  0  0  0  0  0  0
   -2.6898    1.4652   -3.2463 C   0  0  0  0  0  0  0  0  0  0  0  0
   -3.4527    0.4503   -3.1918 O   0  0  0  0  0  0  0  0  0  0  0  0
   -1.3541    1.3254   -3.7076 O   0  0  0  0  0  0  0  0  0  0  0  0
   -0.9105    4.2328   -1.9300 C   0  0  0  0  0  0  0  0  0  0  0  0
   -1.1658    4.9745   -3.0249 C   0  0  0  0  0  0  0  0  0  0  0  0
   -1.9272    5.9920   -3.0364 O   0  0  0  0  0  0  0  0  0  0  0  0
   -0.5190    4.5077   -4.0987 O   0  0  0  0  0  0  0  0  0  0  0  0
    1.5272    1.3858   -2.8085 O   0  0  0  0  0  0  0  0  0  0  0  0
    2.3478    0.4726   -3.7222 S   0  0  0  0  0  0  0  0  0  0  0  0
    3.6268    1.4449   -4.5559 C   0  0  0  0  0  0  0  0  0  0  0  0
    3.1272   -0.8277   -2.7334 C   0  0  0  0  0  0  0  0  0  0  0  0
    0.5882   -1.0569    0.1823 H   0  0  0  0  0  0  0  0  0  0  0  0
    0.5882    0.5493    0.8701 H   0  0  0  0  0  0  0  0  0  0  0  0
    2.0149   -0.0553    0.0625 H   0  0  0  0  0  0  0  0  0  0  0  0
   -1.8251    1.2211   -0.6986 H   0  0  0  0  0  0  0  0  0  0  0  0
   -1.8251    1.0136   -2.4335 H   0  0  0  0  0  0  0  0  0  0  0  0
   -1.8251   -0.3852   -1.3864 H   0  0  0  0  0  0  0  0  0  0  0  0
    4.5272   -1.4430   -3.1690 H   0  0  0  0  0  0  0  0  0  0  0  0
    3.9126   -2.8332   -2.3073 H   0  0  0  0  0  0  0  0  0  0  0  0
    1.6608   -1.1989   -2.1882 H   0  0  0  0  0  0  0  0  0  0  0  0
    1.2120   -2.5995   -1.6777 H   0  0  0  0  0  0  0  0  0  0  0  0
    0.7830   -0.9524   -1.2770 H   0  0  0  0  0  0  0  0  0  0  0  0
    0.1189   -2.4446   -3.6276 H   0  0  0  0  0  0  0  0  0  0  0  0
    1.0729   -1.0515   -4.0811 H   0  0  0  0  0  0  0  0  0  0  0  0
   -1.4570   -1.2752   -2.8384 H   0  0  0  0  0  0  0  0  0  0  0  0
   -0.9911    1.2191   -4.2661 H   0  0  0  0  0  0  0  0  0  0  0  0
    0.6347    0.9332   -3.6917 H   0  0  0  0  0  0  0  0  0  0  0  0
   -0.2968    1.2822   -1.3432 H   0  0  0  0  0  0  0  0  0  0  0  0
   -1.7346    1.9089   -2.1196 H   0  0  0  0  0  0  0  0  0  0  0  0
    0.4348    2.1970   -2.5044 H   0  0  0  0  0  0  0  0  0  0  0  0
    1.1198    3.1957   -0.5761 H   0  0  0  0  0  0  0  0  0  0  0  0
    1.8700    4.0458   -1.9133 H   0  0  0  0  0  0  0  0  0  0  0  0
    2.5449    1.9934   -2.9346 H   0  0  0  0  0  0  0  0  0  0  0  0
    1.5665    1.0538   -1.8343 H   0  0  0  0  0  0  0  0  0  0  0  0
    3.8800    2.1110   -0.1236 H   0  0  0  0  0  0  0  0  0  0  0  0
    4.9976    0.5640   -0.5546 H   0  0  0  0  0  0  0  0  0  0  0  0
    4.4774    0.5649   -2.2248 H   0  0  0  0  0  0  0  0  0  0  0  0
    2.4860   -0.3744   -0.2646 H   0  0  0  0  0  0  0  0  0  0  0  0
    3.8731   -1.4146   -0.4927 H   0  0  0  0  0  0  0  0  0  0  0  0
   -3.5112    2.7888   -1.7927 H   0  0  0  0  0  0  0  0  0  0  0  0
   -2.4309    3.5565   -2.9315 H   0  0  0  0  0  0  0  0  0  0  0  0
   -1.8095    3.8491   -1.4948 H   0  0  0  0  0  0  0  0  0  0  0  0
   -0.4276    4.8262   -1.1819 H   0  0  0  0  0  0  0  0  0  0  0  0
    4.2698    1.8895   -3.8253 H   0  0  0  0  0  0  0  0  0  0  0  0
    4.2005    0.8065   -5.1948 H   0  0  0  0  0  0  0  0  0  0  0  0
    3.1661    2.2136   -5.1405 H   0  0  0  0  0  0  0  0  0  0  0  0
    3.7702   -0.3832   -2.0028 H   0  0  0  0  0  0  0  0  0  0  0  0
    2.3711   -1.4025   -2.2405 H   0  0  0  0  0  0  0  0  0  0  0  0
    3.7009   -1.4662   -3.3722 H   0  0  0  0  0  0  0  0  0  0  0  0
  1  2  1  0  0  0  0
  1 34  1  0  0  0  0
  1 35  1  0  0  0  0
  1 36  1  0  0  0  0
  2  3  1  0  0  0  0
  2  4  2  0  0  0  0
  3 37  1  0  0  0  0
  3 38  1  0  0  0  0
  3 39  1  0  0  0  0
  4  5  1  0  0  0  0
  5  6  1  0  0  0  0
  5 10  1  0  0  0  0
  5 13  1  0  0  0  0
  5 16  1  0  0  0  0
  5 19  1  0  0  0  0
  5 25  1  0  0  0  0
  5 29  1  0  0  0  0
  5 30  1  0  0  0  0
  6  7  1  0  0  0  0
  7  8  2  0  0  0  0
  7  9  1  0  0  0  0
  9 10  1  0  0  0  0
  9 40  1  0  0  0  0
  9 41  1  0  0  0  0
 10 11  1  0  0  0  0
 10 21  1  0  0  0  0
 10 42  1  0  0  0  0
 11 12  1  0  0  0  0
 11 43  1  0  0  0  0
 11 44  1  0  0  0  0
 12 13  1  0  0  0  0
 12 45  1  0  0  0  0
 12 46  1  0  0  0  0
 13 14  1  0  0  0  0
 13 47  1  0  0  0  0
 14 15  1  0  0  0  0
 14 48  1  0  0  0  0
 14 49  1  0  0  0  0
 15 16  1  0  0  0  0
 15 50  1  0  0  0  0
 15 51  1  0  0  0  0
 16 17  1  0  0  0  0
 16 26  1  0  0  0  0
 16 52  1  0  0  0  0
 17 18  1  0  0  0  0
 17 53  1  0  0  0  0
 17 54  1  0  0  0  0
 18 19  1  0  0  0  0
 18 55  1  0  0  0  0
 18 56  1  0  0  0  0
 19 20  1  0  0  0  0
 19 22  1  0  0  0  0
 19 57  1  0  0  0  0
 20 21  1  0  0  0  0
 20 58  1  0  0  0  0
 20 59  1  0  0  0  0
 21 60  1  0  0  0  0
 21 61  1  0  0  0  0
 22 23  1  0  0  0  0
 22 62  1  0  0  0  0
 22 63  1  0  0  0  0
 23 24  2  0  0  0  0
 23 25  1  0  0  0  0
 26 27  1  0  0  0  0
 26 64  1  0  0  0  0
 26 65  1  0  0  0  0
 27 28  2  0  0  0  0
 27 29  1  0  0  0  0
 30 31  2  0  0  0  0
 31 32  1  0  0  0  0
 31 33  1  0  0  0  0
 32 66  1  0  0  0  0
 32 67  1  0  0  0  0
 32 68  1  0  0  0  0
 33 69  1  0  0  0  0
 33 70  1  0  0  0  0
 33 71  1  0  0  0  0
M  CHG  1   5   1
M  END
$$$$
