
  --CCDC--092525    3D                              

 62 63  0  0  0  0  0  0  0  0999 V2000
    0.0373   -0.0764    0.0492 C      0
    1.9427   -0.0049   -0.6686 Pt     0
    1.3409   -0.9210   -2.3888 C      0
    1.6262    1.7727   -1.6205 C      0
    3.8636   -0.0321   -1.3460 N      0
    4.5384   -1.1553   -1.7201 N      0
    5.6886   -0.7019   -2.1788 C      0
    6.7536   -1.6592   -2.6180 C      0
    7.7870   -1.9336   -1.5354 C      0
    8.2671   -0.7466   -0.7309 C      0
    8.8561    0.4218   -1.5445 C      0
    8.0076    1.6672   -1.5492 C      0
    6.7584    1.6969   -2.4168 C      0
    5.6850    0.7017   -2.0714 C      0
    4.5510    1.1186   -1.5539 N      0
    2.3182   -2.1138    0.4608 P      0
    0.8109   -2.6021    1.3354 C      0
    3.7062   -2.0486    1.6261 C      0
    2.7086   -3.4761   -0.6669 C      0
    2.6253    1.2616    1.2805 P      0
    2.0708    2.9846    1.2031 C      0
    4.4263    1.2603    1.4622 C      0
    1.8659    0.5826    2.7776 C      0
   -0.4914    0.8233   -0.2574 H      0
   -0.4613   -0.9532   -0.3618 H      0
    0.0474   -0.1429    1.1328 H      0
    0.5183   -0.3549   -2.8210 H      0
    0.9967   -1.9262   -2.1738 H      0
    2.1630   -0.9605   -3.0996 H      0
    0.6777    2.1992   -1.3034 H      0
    1.6060    1.6054   -2.6953 H      0
    2.4373    2.4597   -1.3923 H      0
    7.2617   -1.2397   -3.4850 H      0
    6.2816   -2.6010   -2.8944 H      0
    8.6569   -2.3785   -2.0163 H      0
    7.3518   -2.6487   -0.8389 H      0
    9.0367   -1.0974   -0.0450 H      0
    7.4208   -0.3644   -0.1621 H      0
    8.9809    0.0909   -2.5745 H      0
    9.8285    0.6737   -1.1238 H      0
    8.6446    2.4878   -1.8762 H      0
    7.6891    1.8419   -0.5226 H      0
    7.0642    1.5119   -3.4455 H      0
    6.3248    2.6929   -2.3405 H      0
    0.9686   -3.5319    1.8797 H      0
   -0.0036   -2.7607    0.6297 H      0
    0.5006   -1.8377    2.0456 H      0
    3.9005   -3.0359    2.0423 H      0
    3.5273   -1.3728    2.4564 H      0
    4.6097   -1.7149    1.1206 H      0
    2.0020   -3.5303   -1.4904 H      0
    2.6651   -4.4260   -0.1385 H      0
    3.7082   -3.3801   -1.0802 H      0
    2.5646    3.5294    0.4029 H      0
    2.2881    3.4982    2.1367 H      0
    0.9969    3.0370    1.0379 H      0
    4.8430    0.2873    1.2180 H      0
    4.7090    1.5022    2.4841 H      0
    4.8852    1.9992    0.8100 H      0
    0.8625    0.9784    2.9131 H      0
    2.4494    0.8419    3.6575 H      0
    1.7784   -0.4975    2.7278 H      0
  1  2  1
  2  3  1
  2  4  1
  2  5  1
  5  6  1
  6  7  2
  7  8  1
  8  9  1
  9 10  1
 10 11  1
 11 12  1
 12 13  1
 13 14  1
  7 14  1
 14 15  2
  5 15  1
  2 16  1
 16 17  1
 16 18  1
 16 19  1
  2 20  1
 20 21  1
 20 22  1
 20 23  1
  1 24  1
  1 25  1
  1 26  1
  3 27  1
  3 28  1
  3 29  1
  4 30  1
  4 31  1
  4 32  1
  8 33  1
  8 34  1
  9 35  1
  9 36  1
 10 37  1
 10 38  1
 11 39  1
 11 40  1
 12 41  1
 12 42  1
 13 43  1
 13 44  1
 17 45  1
 17 46  1
 17 47  1
 18 48  1
 18 49  1
 18 50  1
 19 51  1
 19 52  1
 19 53  1
 21 54  1
 21 55  1
 21 56  1
 22 57  1
 22 58  1
 22 59  1
 23 60  1
 23 61  1
 23 62  1
M  END
$$$$
