
     RDKit          3D

 62 63  0  0  0  0  0  0  0  0999 V2000
   -1.5401   -0.2463   -2.8444 C   0  0  0  0  0  0  0  0  0  0  0  0
   -1.6619    0.4007   -0.9327 Pt  0  0  0  0  0  6  0  0  0  0  0  0
   -3.3595    0.3849   -1.1234 C   0  0  0  0  0  0  0  0  0  0  0  0
   -1.1863    2.2058   -1.6014 C   0  0  0  0  0  0  0  0  0  0  0  0
    0.1379    0.1781   -0.4096 N   0  0  0  0  0  0  0  0  0  0  0  0
    0.8571    0.3615    0.6958 N   0  0  0  0  0  0  0  0  0  0  0  0
    2.1051    0.1489    0.6876 C   0  0  0  0  0  0  0  0  0  0  0  0
    2.7991    0.3847    1.9810 C   0  0  0  0  0  0  0  0  0  0  0  0
    3.8518   -0.6711    2.1874 C   0  0  0  0  0  0  0  0  0  0  0  0
    4.8956   -0.7517    1.1098 C   0  0  0  0  0  0  0  0  0  0  0  0
    5.0694    0.4482    0.2603 C   0  0  0  0  0  0  0  0  0  0  0  0
    4.6486    0.3217   -1.1772 C   0  0  0  0  0  0  0  0  0  0  0  0
    3.5003   -0.6431   -1.3778 C   0  0  0  0  0  0  0  0  0  0  0  0
    2.3460   -0.2328   -0.5482 C   0  0  0  0  0  0  0  0  0  0  0  0
    1.2159   -0.2048   -1.1357 N   0  0  0  0  0  0  0  0  0  0  0  0
   -2.2472    1.3447    0.7921 P   0  0  0  0  0  4  0  0  0  0  0  0
   -3.2678    2.8979    0.5940 C   0  0  0  0  0  0  0  0  0  0  0  0
   -0.8623    1.9958    1.7464 C   0  0  0  0  0  0  0  0  0  0  0  0
   -3.1882    0.4290    1.9770 C   0  0  0  0  0  0  0  0  0  0  0  0
   -1.7696   -1.5549   -0.2818 P   0  0  0  0  0  4  0  0  0  0  0  0
   -3.2862   -2.3995   -0.6874 C   0  0  0  0  0  0  0  0  0  0  0  0
   -0.5759   -2.7215   -1.1210 C   0  0  0  0  0  0  0  0  0  0  0  0
   -1.4595   -1.8702    1.4379 C   0  0  0  0  0  0  0  0  0  0  0  0
   -1.9997   -1.1590   -3.0274 H   0  0  0  0  0  0  0  0  0  0  0  0
   -1.9178    0.4311   -3.6007 H   0  0  0  0  0  0  0  0  0  0  0  0
   -0.4865   -0.3741   -3.0728 H   0  0  0  0  0  0  0  0  0  0  0  0
   -3.8832    1.2588   -1.6394 H   0  0  0  0  0  0  0  0  0  0  0  0
   -3.9247   -0.3509   -1.8288 H   0  0  0  0  0  0  0  0  0  0  0  0
   -4.1864    0.1137   -0.3885 H   0  0  0  0  0  0  0  0  0  0  0  0
   -0.3982    2.2078   -2.3906 H   0  0  0  0  0  0  0  0  0  0  0  0
   -2.0142    2.6735   -2.0827 H   0  0  0  0  0  0  0  0  0  0  0  0
   -0.7325    2.8549   -0.9142 H   0  0  0  0  0  0  0  0  0  0  0  0
    2.0870    0.2357    2.8215 H   0  0  0  0  0  0  0  0  0  0  0  0
    3.1587    1.4238    2.1112 H   0  0  0  0  0  0  0  0  0  0  0  0
    3.3154   -1.6423    2.2125 H   0  0  0  0  0  0  0  0  0  0  0  0
    4.2478   -0.5241    3.2077 H   0  0  0  0  0  0  0  0  0  0  0  0
    5.8464   -0.9667    1.6871 H   0  0  0  0  0  0  0  0  0  0  0  0
    4.7769   -1.6761    0.4974 H   0  0  0  0  0  0  0  0  0  0  0  0
    4.6312    1.3898    0.7013 H   0  0  0  0  0  0  0  0  0  0  0  0
    6.1552    0.7007    0.2072 H   0  0  0  0  0  0  0  0  0  0  0  0
    5.4409   -0.0113   -1.8583 H   0  0  0  0  0  0  0  0  0  0  0  0
    4.2976    1.3138   -1.5265 H   0  0  0  0  0  0  0  0  0  0  0  0
    3.2276   -0.5264   -2.4468 H   0  0  0  0  0  0  0  0  0  0  0  0
    3.7810   -1.7064   -1.2763 H   0  0  0  0  0  0  0  0  0  0  0  0
   -4.2121    2.5481    0.1311 H   0  0  0  0  0  0  0  0  0  0  0  0
   -2.7790    3.5797   -0.1211 H   0  0  0  0  0  0  0  0  0  0  0  0
   -3.4154    3.2404    1.5929 H   0  0  0  0  0  0  0  0  0  0  0  0
   -0.4244    1.2693    2.4608 H   0  0  0  0  0  0  0  0  0  0  0  0
   -0.0844    2.4719    1.0724 H   0  0  0  0  0  0  0  0  0  0  0  0
   -1.1760    2.8324    2.3624 H   0  0  0  0  0  0  0  0  0  0  0  0
   -2.7421    0.2685    2.9756 H   0  0  0  0  0  0  0  0  0  0  0  0
   -4.1899    0.9048    2.2593 H   0  0  0  0  0  0  0  0  0  0  0  0
   -3.5746   -0.5215    1.5023 H   0  0  0  0  0  0  0  0  0  0  0  0
   -3.2067   -3.3455   -0.1904 H   0  0  0  0  0  0  0  0  0  0  0  0
   -3.4329   -2.5353   -1.7900 H   0  0  0  0  0  0  0  0  0  0  0  0
   -4.2052   -1.9109   -0.3062 H   0  0  0  0  0  0  0  0  0  0  0  0
   -0.8128   -3.7377   -0.9262 H   0  0  0  0  0  0  0  0  0  0  0  0
   -0.6889   -2.5032   -2.2030 H   0  0  0  0  0  0  0  0  0  0  0  0
    0.4515   -2.5055   -0.8079 H   0  0  0  0  0  0  0  0  0  0  0  0
   -2.2783   -2.3494    2.0129 H   0  0  0  0  0  0  0  0  0  0  0  0
   -0.5992   -2.6016    1.6356 H   0  0  0  0  0  0  0  0  0  0  0  0
   -1.0744   -0.9769    1.9940 H   0  0  0  0  0  0  0  0  0  0  0  0
  1  2  1  0
  2  3  1  0
  2  4  1  0
  2  5  1  0
  5  6  1  0
  6  7  2  0
  7  8  1  0
  8  9  1  0
  9 10  1  0
 10 11  1  0
 11 12  1  0
 12 13  1  0
 13 14  1  0
 14 15  2  0
  2 16  1  0
 16 17  1  0
 16 18  1  0
 16 19  1  0
  2 20  1  0
 20 21  1  0
 20 22  1  0
 20 23  1  0
 15  5  1  0
 14  7  1  0
  1 24  1  0
  1 25  1  0
  1 26  1  0
  3 27  1  0
  3 28  1  0
  3 29  1  0
  4 30  1  0
  4 31  1  0
  4 32  1  0
  8 33  1  0
  8 34  1  0
  9 35  1  0
  9 36  1  0
 10 37  1  0
 10 38  1  0
 11 39  1  0
 11 40  1  0
 12 41  1  0
 12 42  1  0
 13 43  1  0
 13 44  1  0
 17 45  1  0
 17 46  1  0
 17 47  1  0
 18 48  1  0
 18 49  1  0
 18 50  1  0
 19 51  1  0
 19 52  1  0
 19 53  1  0
 21 54  1  0
 21 55  1  0
 21 56  1  0
 22 57  1  0
 22 58  1  0
 22 59  1  0
 23 60  1  0
 23 61  1  0
 23 62  1  0
M  RAD  2  16   2  20   2
M  END
