
  --CCDC--092525    3D                              

 62 63  0  0  0  0  0  0  0  0999 V2000
    0.0614   -0.1153   -0.0274 C      0
    1.9865   -0.0135   -0.6927 Pt     0
    2.1250   -2.0539   -0.6921 C      0
    1.8485    2.0198   -0.6934 C      0
    1.2189   -0.1081   -2.5896 N      0
    1.7780   -0.8280   -3.5980 N      0
    1.0094   -0.5987   -4.6411 C      0
    1.3602   -1.1916   -5.9813 C      0
    1.8237   -0.2091   -7.0460 C      0
    0.8591    0.8477   -7.5201 C      0
    0.6738    2.0220   -6.5399 C      0
   -0.6752    2.1065   -5.8616 C      0
   -1.1278    0.8835   -5.0776 C      0
   -0.0300    0.2706   -4.2653 C      0
    0.1049    0.5733   -2.9860 N      0
    2.7803    0.0490    1.5928 P      0
    2.8741   -1.6477    2.2132 C      0
    1.6290    0.9837    2.6328 C      0
    4.3644    0.8927    1.8558 C      0
    4.2625    0.1355   -1.5291 P      0
    4.4669   -0.1795   -3.2986 C      0
    5.2990   -1.1275   -0.7511 C      0
    4.9871    1.7772   -1.2930 C      0
   -0.4178    0.8540   -0.1505 H      0
   -0.4736   -0.8582   -0.6115 H      0
    0.0342   -0.4029    1.0198 H      0
    1.3175   -2.4652   -0.0866 H      0
    3.0747   -2.3704   -0.2741 H      0
    2.0357   -2.4266   -1.7094 H      0
    0.9529    2.3075   -0.1421 H      0
    1.7770    2.3879   -1.7135 H      0
    2.7137    2.4549   -0.2026 H      0
    0.4763   -1.7018   -6.3613 H      0
    2.1587   -1.9157   -5.8263 H      0
    2.1138   -0.7935   -7.9179 H      0
    2.6962    0.3074   -6.6485 H      0
   -0.1108    0.3784   -7.6775 H      0
    1.2270    1.2464   -8.4644 H      0
    0.8279    2.9469   -7.0936 H      0
    1.4328    1.9326   -5.7641 H      0
   -1.4201    2.2975   -6.6327 H      0
   -0.6442    2.9476   -5.1706 H      0
   -1.4974    0.1381   -5.7802 H      0
   -1.9324    1.1799   -4.4062 H      0
    1.9064   -2.1376    2.1249 H      0
    3.1680   -1.6711    3.2607 H      0
    3.5968   -2.2291    1.6446 H      0
    0.6697    0.4815    2.7313 H      0
    1.4558    1.9721    2.2098 H      0
    2.0388    1.1176    3.6334 H      0
    5.1813    0.4539    1.2926 H      0
    4.6405    0.8690    2.9096 H      0
    4.2899    1.9374    1.5603 H      0
    3.8494    0.4933   -3.8909 H      0
    4.1932   -1.2045   -3.5429 H      0
    5.5055   -0.0341   -3.5916 H      0
    5.2446   -2.0512   -1.3239 H      0
    4.9727   -1.3560    0.2587 H      0
    6.3383   -0.8080   -0.7221 H      0
    4.6919    2.4417   -2.1011 H      0
    6.0719    1.7120   -1.2930 H      0
    4.6778    2.2305   -0.3587 H      0
  1  2  1
  2  3  1
  2  4  1
  2  5  1
  5  6  1
  6  7  2
  7  8  1
  8  9  1
  9 10  1
 10 11  1
 11 12  1
 12 13  1
 13 14  1
  7 14  1
 14 15  2
  5 15  1
  2 16  1
 16 17  1
 16 18  1
 16 19  1
  2 20  1
 20 21  1
 20 22  1
 20 23  1
  1 24  1
  1 25  1
  1 26  1
  3 27  1
  3 28  1
  3 29  1
  4 30  1
  4 31  1
  4 32  1
  8 33  1
  8 34  1
  9 35  1
  9 36  1
 10 37  1
 10 38  1
 11 39  1
 11 40  1
 12 41  1
 12 42  1
 13 43  1
 13 44  1
 17 45  1
 17 46  1
 17 47  1
 18 48  1
 18 49  1
 18 50  1
 19 51  1
 19 52  1
 19 53  1
 21 54  1
 21 55  1
 21 56  1
 22 57  1
 22 58  1
 22 59  1
 23 60  1
 23 61  1
 23 62  1
M  END
$$$$
