
 OpenBabel09252515173D

 62 63  0  0  0  0  0  0  0  0999 V2000
    1.0143    0.0187    0.0972 C   0  0  0  0  0  0  0  0  0  0  0  0
    0.3076    1.9132   -0.5398 Pt  0  0  0  0  0  0  0  0  0  0  0  0
    2.0386    2.1555   -1.7396 C   0  0  0  0  0  0  0  0  0  0  0  0
   -0.6918    0.9932   -2.1675 C   0  0  0  0  0  0  0  0  0  0  0  0
   -0.3824    3.7631   -1.1619 N   0  0  0  0  0  0  0  0  0  0  0  0
   -1.9283    4.1833   -1.8173 N   0  0  0  0  0  0  0  0  0  0  0  0
   -1.6737    5.9234   -2.0469 C   0  0  0  0  0  0  0  0  0  0  0  0
   -2.6938    6.9066   -2.5499 C   0  0  0  0  0  0  0  0  0  0  0  0
   -3.2454    7.6567   -1.3236 C   0  0  0  0  0  0  0  0  0  0  0  0
   -2.0609    8.2470   -0.5505 C   0  0  0  0  0  0  0  0  0  0  0  0
   -1.3958    9.2177   -1.5036 C   0  0  0  0  0  0  0  0  0  0  0  0
   -0.4326    8.5624   -2.4761 C   0  0  0  0  0  0  0  0  0  0  0  0
    0.3839    7.4584   -1.8176 C   0  0  0  0  0  0  0  0  0  0  0  0
   -0.4009    6.1553   -1.6771 C   0  0  0  0  0  0  0  0  0  0  0  0
    0.2914    4.9701   -1.1571 N   0  0  0  0  0  0  0  0  0  0  0  0
   -1.6765    1.6356    0.8354 P   0  0  0  0  0  4  0  0  0  0  0  0
   -1.2698    0.6050    2.2919 C   0  0  0  0  0  0  0  0  0  0  0  0
   -2.2659    3.2755    1.3939 C   0  0  0  0  0  0  0  0  0  0  0  0
   -2.9879    0.8171   -0.1440 C   0  0  0  0  0  0  0  0  0  0  0  0
    1.4531    2.9678    1.3258 P   0  0  0  0  0  4  0  0  0  0  0  0
    0.8082    2.2909    2.8989 C   0  0  0  0  0  0  0  0  0  0  0  0
    3.2482    2.6324    1.2077 C   0  0  0  0  0  0  0  0  0  0  0  0
    1.1656    4.7744    1.2756 C   0  0  0  0  0  0  0  0  0  0  0  0
    0.6576   -0.7378   -0.5701 H   0  0  0  0  0  0  0  0  0  0  0  0
    0.6576   -0.1809    1.0860 H   0  0  0  0  0  0  0  0  0  0  0  0
    2.0843    0.0187    0.0972 H   0  0  0  0  0  0  0  0  0  0  0  0
    2.3832    1.1966   -2.0662 H   0  0  0  0  0  0  0  0  0  0  0  0
    1.8008    2.7580   -2.5912 H   0  0  0  0  0  0  0  0  0  0  0  0
    2.8054    2.6340   -1.1670 H   0  0  0  0  0  0  0  0  0  0  0  0
   -1.7414    1.1893   -2.0984 H   0  0  0  0  0  0  0  0  0  0  0  0
   -0.3147    1.3890   -3.0873 H   0  0  0  0  0  0  0  0  0  0  0  0
   -0.5236   -0.0631   -2.1381 H   0  0  0  0  0  0  0  0  0  0  0  0
   -2.2530    7.5889   -3.2463 H   0  0  0  0  0  0  0  0  0  0  0  0
   -3.4858    6.3896   -3.0503 H   0  0  0  0  0  0  0  0  0  0  0  0
   -3.7978    6.9868   -0.6983 H   0  0  0  0  0  0  0  0  0  0  0  0
   -3.8974    8.4427   -1.6429 H   0  0  0  0  0  0  0  0  0  0  0  0
   -1.3833    7.4865   -0.2230 H   0  0  0  0  0  0  0  0  0  0  0  0
   -2.4037    8.7585    0.3246 H   0  0  0  0  0  0  0  0  0  0  0  0
   -2.1742    9.6610   -2.0887 H   0  0  0  0  0  0  0  0  0  0  0  0
   -0.8541    9.9382   -0.9270 H   0  0  0  0  0  0  0  0  0  0  0  0
   -1.0081    8.1217   -3.2632 H   0  0  0  0  0  0  0  0  0  0  0  0
    0.2360    9.3073   -2.8542 H   0  0  0  0  0  0  0  0  0  0  0  0
    1.2300    7.2627   -2.4427 H   0  0  0  0  0  0  0  0  0  0  0  0
    0.6819    7.7863   -0.8437 H   0  0  0  0  0  0  0  0  0  0  0  0
   -0.5030    1.0836    2.8645 H   0  0  0  0  0  0  0  0  0  0  0  0
   -2.1435    0.4827    2.8974 H   0  0  0  0  0  0  0  0  0  0  0  0
   -0.9251   -0.3539    1.9653 H   0  0  0  0  0  0  0  0  0  0  0  0
   -2.5037    3.8781    0.5423 H   0  0  0  0  0  0  0  0  0  0  0  0
   -3.1396    3.1533    1.9994 H   0  0  0  0  0  0  0  0  0  0  0  0
   -1.4992    3.7541    1.9666 H   0  0  0  0  0  0  0  0  0  0  0  0
   -3.2256    1.4197   -0.9957 H   0  0  0  0  0  0  0  0  0  0  0  0
   -2.6432   -0.1418   -0.4706 H   0  0  0  0  0  0  0  0  0  0  0  0
   -3.8615    0.6948    0.4615 H   0  0  0  0  0  0  0  0  0  0  0  0
    0.9764    1.2346    2.9282 H   0  0  0  0  0  0  0  0  0  0  0  0
    1.3126    2.7553    3.7204 H   0  0  0  0  0  0  0  0  0  0  0  0
   -0.2414    2.4871    2.9680 H   0  0  0  0  0  0  0  0  0  0  0  0
    3.6253    3.0282    0.2879 H   0  0  0  0  0  0  0  0  0  0  0  0
    3.7526    3.0968    2.0292 H   0  0  0  0  0  0  0  0  0  0  0  0
    3.4164    1.5761    1.2370 H   0  0  0  0  0  0  0  0  0  0  0  0
    1.5426    5.1702    0.3558 H   0  0  0  0  0  0  0  0  0  0  0  0
    0.1160    4.9705    1.3447 H   0  0  0  0  0  0  0  0  0  0  0  0
    1.6700    5.2388    2.0971 H   0  0  0  0  0  0  0  0  0  0  0  0
  1  2  1  0  0  0  0
  1 24  1  0  0  0  0
  1 25  1  0  0  0  0
  1 26  1  0  0  0  0
  2  3  1  0  0  0  0
  2  4  1  0  0  0  0
  2  5  1  0  0  0  0
  2 16  1  0  0  0  0
  2 20  1  0  0  0  0
  3 27  1  0  0  0  0
  3 28  1  0  0  0  0
  3 29  1  0  0  0  0
  4 30  1  0  0  0  0
  4 31  1  0  0  0  0
  4 32  1  0  0  0  0
  5  6  1  0  0  0  0
  5 15  1  0  0  0  0
  6  7  2  0  0  0  0
  7  8  1  0  0  0  0
  7 14  1  0  0  0  0
  8  9  1  0  0  0  0
  8 33  1  0  0  0  0
  8 34  1  0  0  0  0
  9 10  1  0  0  0  0
  9 35  1  0  0  0  0
  9 36  1  0  0  0  0
 10 11  1  0  0  0  0
 10 37  1  0  0  0  0
 10 38  1  0  0  0  0
 11 12  1  0  0  0  0
 11 39  1  0  0  0  0
 11 40  1  0  0  0  0
 12 13  1  0  0  0  0
 12 41  1  0  0  0  0
 12 42  1  0  0  0  0
 13 14  1  0  0  0  0
 13 43  1  0  0  0  0
 13 44  1  0  0  0  0
 14 15  2  0  0  0  0
 16 17  1  0  0  0  0
 16 18  1  0  0  0  0
 16 19  1  0  0  0  0
 17 45  1  0  0  0  0
 17 46  1  0  0  0  0
 17 47  1  0  0  0  0
 18 48  1  0  0  0  0
 18 49  1  0  0  0  0
 18 50  1  0  0  0  0
 19 51  1  0  0  0  0
 19 52  1  0  0  0  0
 19 53  1  0  0  0  0
 20 21  1  0  0  0  0
 20 22  1  0  0  0  0
 20 23  1  0  0  0  0
 21 54  1  0  0  0  0
 21 55  1  0  0  0  0
 21 56  1  0  0  0  0
 22 57  1  0  0  0  0
 22 58  1  0  0  0  0
 22 59  1  0  0  0  0
 23 60  1  0  0  0  0
 23 61  1  0  0  0  0
 23 62  1  0  0  0  0
M  END
$$$$
