
  --CCDC--092525    3D                              

 39 44  0  0  0  0  0  0  0  0999 V2000
   -0.0157    0.0086   -0.0383 C      0
    1.7571   -0.0119   -0.6228 Si     0
    2.4870   -1.6159   -0.0025 C      0
    1.6163   -0.1854   -2.4767 C      0
    2.6928    1.4448   -0.0961 C      0
    3.7535    1.9322   -0.8718 C      0
    5.3137    2.6981   -2.0137 Cr     0
    3.6112    2.3087   -3.1301 C      0
    2.7220    2.1234   -3.8147 O      0
    4.9787    0.6668   -2.2371 C      0
    4.7943   -0.4512   -2.3601 O      0
    6.8836    2.5553   -3.0255 C      0
    5.9176    3.6846   -3.4880 C      0
    5.1255    4.5147   -2.4305 C      0
    5.3024    4.2139   -0.9132 C      0
    6.2709    3.0847   -0.4509 C      0
    7.0619    2.2580   -1.5059 C      0
    2.3160    2.2055    1.5073 Si     0
    1.8352    4.0095    1.3785 C      0
    3.7633    2.1691    2.6918 C      0
    0.9063    1.3711    2.4137 C      0
   -0.3603    1.0288    0.1063 H      0
   -0.1224   -0.5209    0.9038 H      0
   -0.6677   -0.4635   -0.7685 H      0
    3.5068   -1.7403   -0.3578 H      0
    1.9021   -2.4637   -0.3503 H      0
    2.5030   -1.6408    1.0843 H      0
    1.1930   -1.1493   -2.7521 H      0
    2.5853   -0.0947   -2.9589 H      0
    0.9742    0.5947   -2.8771 H      0
    2.5410    4.5533    0.7551 H      0
    1.8249    4.4817    2.3591 H      0
    0.8441    4.1211    0.9478 H      0
    4.6152    2.7019    2.2756 H      0
    4.0692    1.1456    2.8968 H      0
    3.5018    2.6387    3.6380 H      0
   -0.0513    1.6403    1.9728 H      0
    0.8867    1.6647    3.4618 H      0
    1.0048    0.2884    2.3709 H      0
  1  2  1
  2  3  1
  2  4  1
  2  5  1
  5  6  4
  6  7  4
  7  8  1
  8  9  3
  7 10  1
 10 11  3
  7 12  1
 12 13  4
  7 13  1
 13 14  4
  7 14  1
 14 15  4
  7 15  1
 15 16  4
  7 16  1
 16 17  4
  7 17  1
 12 17  4
  5 18  1
 18 19  1
 18 20  1
 18 21  1
  1 22  1
  1 23  1
  1 24  1
  3 25  1
  3 26  1
  3 27  1
  4 28  1
  4 29  1
  4 30  1
 19 31  1
 19 32  1
 19 33  1
 20 34  1
 20 35  1
 20 36  1
 21 37  1
 21 38  1
 21 39  1
M  END
$$$$
