
 OpenBabel09252518073D

 42 41  0  0  0  0  0  0  0  0999 V2000
    0.9972   -0.0708   -0.0706 C   0  0  0  0  0  0  0  0  0  0  0  0
    0.2905   -0.7582    1.8062 Pt  0  0  0  0  0  0  0  0  0  0  0  0
    2.0215    0.0267    2.7454 C   0  0  0  0  0  0  0  0  0  0  0  0
   -0.7088    1.0873    2.1059 C   0  0  0  0  0  0  0  0  0  0  0  0
   -0.3995   -1.4294    3.6388 N   0  0  0  0  0  0  0  0  0  0  0  0
    0.2874   -1.2280    4.6889 N   0  3  0  0  0  0  0  0  0  0  0  0
    0.9742   -1.0266    5.7391 N   0  5  0  0  0  0  0  0  0  0  0  0
   -1.6935   -1.6578    0.7296 P   0  0  0  0  0  4  0  0  0  0  0  0
   -1.2869   -2.1501   -0.9853 C   0  0  0  0  0  0  0  0  0  0  0  0
   -2.2830   -3.1191    1.6602 C   0  0  0  0  0  0  0  0  0  0  0  0
   -3.0049   -0.3817    0.7033 C   0  0  0  0  0  0  0  0  0  0  0  0
    1.4360   -2.8735    1.4627 P   0  0  0  0  0  4  0  0  0  0  0  0
    0.7912   -3.6780   -0.0492 C   0  0  0  0  0  0  0  0  0  0  0  0
    3.2312   -2.5717    1.2748 C   0  0  0  0  0  0  0  0  0  0  0  0
    1.1485   -3.9640    2.9039 C   0  0  0  0  0  0  0  0  0  0  0  0
    0.6405    0.9231   -0.2438 H   0  0  0  0  0  0  0  0  0  0  0  0
    0.6405   -0.7176   -0.8447 H   0  0  0  0  0  0  0  0  0  0  0  0
    2.0672   -0.0708   -0.0706 H   0  0  0  0  0  0  0  0  0  0  0  0
    2.3662    0.8811    2.2013 H   0  0  0  0  0  0  0  0  0  0  0  0
    1.7837    0.3145    3.7482 H   0  0  0  0  0  0  0  0  0  0  0  0
    2.7883   -0.7195    2.7609 H   0  0  0  0  0  0  0  0  0  0  0  0
   -1.7584    0.9108    2.2158 H   0  0  0  0  0  0  0  0  0  0  0  0
   -0.3318    1.5577    2.9899 H   0  0  0  0  0  0  0  0  0  0  0  0
   -0.5407    1.7249    1.2632 H   0  0  0  0  0  0  0  0  0  0  0  0
   -0.5201   -2.8962   -0.9699 H   0  0  0  0  0  0  0  0  0  0  0  0
   -2.1605   -2.5462   -1.4594 H   0  0  0  0  0  0  0  0  0  0  0  0
   -0.9422   -1.2957   -1.5295 H   0  0  0  0  0  0  0  0  0  0  0  0
   -2.5208   -2.8313    2.6630 H   0  0  0  0  0  0  0  0  0  0  0  0
   -3.1567   -3.5152    1.1862 H   0  0  0  0  0  0  0  0  0  0  0  0
   -1.5162   -3.8653    1.6757 H   0  0  0  0  0  0  0  0  0  0  0  0
   -3.2427   -0.0939    1.7060 H   0  0  0  0  0  0  0  0  0  0  0  0
   -2.6603    0.4727    0.1592 H   0  0  0  0  0  0  0  0  0  0  0  0
   -3.8786   -0.7778    0.2292 H   0  0  0  0  0  0  0  0  0  0  0  0
    0.9593   -3.0404   -0.8919 H   0  0  0  0  0  0  0  0  0  0  0  0
    1.2956   -4.6094   -0.2004 H   0  0  0  0  0  0  0  0  0  0  0  0
   -0.2584   -3.8545    0.0607 H   0  0  0  0  0  0  0  0  0  0  0  0
    3.6082   -2.1013    2.1588 H   0  0  0  0  0  0  0  0  0  0  0  0
    3.7356   -3.5031    1.1235 H   0  0  0  0  0  0  0  0  0  0  0  0
    3.3993   -1.9341    0.4321 H   0  0  0  0  0  0  0  0  0  0  0  0
    1.5255   -3.4937    3.7879 H   0  0  0  0  0  0  0  0  0  0  0  0
    0.0989   -4.1405    3.0138 H   0  0  0  0  0  0  0  0  0  0  0  0
    1.6529   -4.8955    2.7527 H   0  0  0  0  0  0  0  0  0  0  0  0
  1  2  1  0  0  0  0
  1 16  1  0  0  0  0
  1 17  1  0  0  0  0
  1 18  1  0  0  0  0
  2  3  1  0  0  0  0
  2  4  1  0  0  0  0
  2  5  1  0  0  0  0
  2  8  1  0  0  0  0
  2 12  1  0  0  0  0
  3 19  1  0  0  0  0
  3 20  1  0  0  0  0
  3 21  1  0  0  0  0
  4 22  1  0  0  0  0
  4 23  1  0  0  0  0
  4 24  1  0  0  0  0
  5  6  2  0  0  0  0
  6  7  2  0  0  0  0
  8  9  1  0  0  0  0
  8 10  1  0  0  0  0
  8 11  1  0  0  0  0
  9 25  1  0  0  0  0
  9 26  1  0  0  0  0
  9 27  1  0  0  0  0
 10 28  1  0  0  0  0
 10 29  1  0  0  0  0
 10 30  1  0  0  0  0
 11 31  1  0  0  0  0
 11 32  1  0  0  0  0
 11 33  1  0  0  0  0
 12 13  1  0  0  0  0
 12 14  1  0  0  0  0
 12 15  1  0  0  0  0
 13 34  1  0  0  0  0
 13 35  1  0  0  0  0
 13 36  1  0  0  0  0
 14 37  1  0  0  0  0
 14 38  1  0  0  0  0
 14 39  1  0  0  0  0
 15 40  1  0  0  0  0
 15 41  1  0  0  0  0
 15 42  1  0  0  0  0
M  CHG  2   6   1   7  -1
M  END
$$$$
