
 OpenBabel09252517563D

114121  0  0  0  0  0  0  0  0999 V2000
    0.9354   -0.0761   -0.0061 C   0  0  0  0  0  0  0  0  0  0  0  0
    0.4620    1.0141   -0.7832 O   0  0  0  0  0  0  0  0  0  0  0  0
    1.3975    1.5935   -1.5553 C   0  0  0  0  0  0  0  0  0  0  0  0
    1.1990    3.0399   -1.5756 C   0  0  0  0  0  0  0  0  0  0  0  0
    0.5715    3.3646   -0.1991 O   0  0  0  0  0  0  0  0  0  0  0  0
   -0.3700    4.4231   -0.2971 C   0  0  0  0  0  0  0  0  0  0  0  0
   -0.1150    2.0367    0.1557 Eu  0  0  0  0  0  0  0  0  0  0  0  0
   -1.8460    0.6970   -1.4079 N   0  0  0  0  0  0  0  0  0  0  0  0
   -1.5567   -0.5192   -1.8178 C   0  0  0  0  0  0  0  0  0  0  0  0
   -1.2005   -2.0168   -2.3224 S   0  0  0  0  0  0  0  0  0  0  0  0
    1.3067    3.7117    1.7079 N   0  0  0  0  0  0  0  0  0  0  0  0
    2.7759    3.6714    1.6795 C   0  0  0  0  0  0  0  0  0  0  0  0
    3.4107    3.9046    0.5508 C   0  0  0  0  0  0  0  0  0  0  0  0
    4.8009    3.8696    0.5555 C   0  0  0  0  0  0  0  0  0  0  0  0
    5.4339    4.0921    1.7987 C   0  0  0  0  0  0  0  0  0  0  0  0
    4.7813    3.5892    2.9228 C   0  0  0  0  0  0  0  0  0  0  0  0
    3.4828    3.3857    2.8528 C   0  0  0  0  0  0  0  0  0  0  0  0
    2.7426    2.8340    4.0603 C   0  0  0  0  0  0  0  0  0  0  0  0
    3.3135    1.4738    4.4266 C   0  0  0  0  0  0  0  0  0  0  0  0
    2.9077    3.7856    5.2340 C   0  0  0  0  0  0  0  0  0  0  0  0
    2.6435    4.2050   -0.7265 C   0  0  0  0  0  0  0  0  0  0  0  0
    3.0357    5.5802   -1.2417 C   0  0  0  0  0  0  0  0  0  0  0  0
    2.9764    3.1569   -1.7758 C   0  0  0  0  0  0  0  0  0  0  0  0
    0.6145    4.6674    2.5845 C   0  0  0  0  0  0  0  0  0  0  0  0
    0.5514    5.9932    2.5137 C   0  0  0  0  0  0  0  0  0  0  0  0
   -0.1782    4.4182   -1.0935 N   0  0  0  0  0  0  0  0  0  0  0  0
    0.6386    5.5329   -0.5923 C   0  0  0  0  0  0  0  0  0  0  0  0
    1.9431    5.3660   -0.5503 C   0  0  0  0  0  0  0  0  0  0  0  0
    2.7323    6.4319   -0.1321 C   0  0  0  0  0  0  0  0  0  0  0  0
    2.1740    7.7225   -0.2686 C   0  0  0  0  0  0  0  0  0  0  0  0
    0.8004    7.8267   -0.0570 C   0  0  0  0  0  0  0  0  0  0  0  0
    0.0601    6.7502   -0.2162 C   0  0  0  0  0  0  0  0  0  0  0  0
   -1.4407    6.8301    0.0113 C   0  0  0  0  0  0  0  0  0  0  0  0
   -1.7139    7.2617    1.4429 C   0  0  0  0  0  0  0  0  0  0  0  0
   -2.0452    7.8430   -0.9474 C   0  0  0  0  0  0  0  0  0  0  0  0
    2.5718    4.0408   -0.9489 C   0  0  0  0  0  0  0  0  0  0  0  0
    3.5202    4.2607   -2.1163 C   0  0  0  0  0  0  0  0  0  0  0  0
    3.3434    3.4710    0.2303 C   0  0  0  0  0  0  0  0  0  0  0  0
   -0.3969    6.5077    3.5090 C   0  0  0  0  0  0  0  0  0  0  0  0
   -0.8985    7.8312    3.9247 C   0  0  0  0  0  0  0  0  0  0  0  0
   -1.7864    7.9074    4.9011 C   0  0  0  0  0  0  0  0  0  0  0  0
   -2.2999    6.7075    5.5979 C   0  0  0  0  0  0  0  0  0  0  0  0
   -1.8537    5.5310    5.2280 C   0  0  0  0  0  0  0  0  0  0  0  0
   -2.2470    4.2327    5.8018 C   0  0  0  0  0  0  0  0  0  0  0  0
   -1.6963    3.1384    5.3089 C   0  0  0  0  0  0  0  0  0  0  0  0
   -0.7091    3.1284    4.2168 C   0  0  0  0  0  0  0  0  0  0  0  0
   -0.3093    4.2367    3.6455 C   0  0  0  0  0  0  0  0  0  0  0  0
   -0.8754    5.4889    4.1477 C   0  0  0  0  0  0  0  0  0  0  0  0
    0.1150    1.6689    1.5952 O   0  0  0  0  0  0  0  0  0  0  0  0
    0.9479    2.6434    2.2058 C   0  0  0  0  0  0  0  0  0  0  0  0
   -1.0646    1.6210    2.2379 C   0  0  0  0  0  0  0  0  0  0  0  0
   -2.1486    1.4534    1.2750 C   0  0  0  0  0  0  0  0  0  0  0  0
   -1.6413    2.1509   -0.0097 O   0  0  0  0  0  0  0  0  0  0  0  0
   -2.0876    1.4755   -1.1763 C   0  0  0  0  0  0  0  0  0  0  0  0
    0.5787   -0.9939   -0.4247 H   0  0  0  0  0  0  0  0  0  0  0  0
    0.5787    0.0203    0.9981 H   0  0  0  0  0  0  0  0  0  0  0  0
    2.0054   -0.0761   -0.0061 H   0  0  0  0  0  0  0  0  0  0  0  0
    1.3167    1.2128   -2.5521 H   0  0  0  0  0  0  0  0  0  0  0  0
    2.3680    1.3740   -1.1619 H   0  0  0  0  0  0  0  0  0  0  0  0
    2.1114    3.5733   -1.7426 H   0  0  0  0  0  0  0  0  0  0  0  0
    0.5371    3.3197   -2.3684 H   0  0  0  0  0  0  0  0  0  0  0  0
   -1.0846    4.1952   -1.0601 H   0  0  0  0  0  0  0  0  0  0  0  0
   -0.8736    4.5403    0.6397 H   0  0  0  0  0  0  0  0  0  0  0  0
    0.1389    5.3312   -0.5446 H   0  0  0  0  0  0  0  0  0  0  0  0
    5.3621    3.6838   -0.3364 H   0  0  0  0  0  0  0  0  0  0  0  0
    6.3630    4.6177    1.8732 H   0  0  0  0  0  0  0  0  0  0  0  0
    5.3224    3.3738    3.8205 H   0  0  0  0  0  0  0  0  0  0  0  0
    1.7034    2.7333    3.8263 H   0  0  0  0  0  0  0  0  0  0  0  0
    4.3527    1.5744    4.6607 H   0  0  0  0  0  0  0  0  0  0  0  0
    2.7925    1.0854    5.2767 H   0  0  0  0  0  0  0  0  0  0  0  0
    3.1973    0.8039    3.6004 H   0  0  0  0  0  0  0  0  0  0  0  0
    2.5058    4.7431    4.9762 H   0  0  0  0  0  0  0  0  0  0  0  0
    2.3867    3.3972    6.0841 H   0  0  0  0  0  0  0  0  0  0  0  0
    3.9469    3.8863    5.4681 H   0  0  0  0  0  0  0  0  0  0  0  0
    1.5929    4.1861   -0.5243 H   0  0  0  0  0  0  0  0  0  0  0  0
    4.0863    5.5990   -1.4438 H   0  0  0  0  0  0  0  0  0  0  0  0
    2.4956    5.7916   -2.1408 H   0  0  0  0  0  0  0  0  0  0  0  0
    2.8013    6.3180   -0.5030 H   0  0  0  0  0  0  0  0  0  0  0  0
    2.7003    2.1888   -1.4132 H   0  0  0  0  0  0  0  0  0  0  0  0
    2.4364    3.3683   -2.6750 H   0  0  0  0  0  0  0  0  0  0  0  0
    4.0270    3.1758   -1.9780 H   0  0  0  0  0  0  0  0  0  0  0  0
    3.7117    6.2823    0.2721 H   0  0  0  0  0  0  0  0  0  0  0  0
    2.7726    8.5729   -0.5205 H   0  0  0  0  0  0  0  0  0  0  0  0
    0.3587    8.7588    0.2279 H   0  0  0  0  0  0  0  0  0  0  0  0
   -1.8793    5.8695   -0.1615 H   0  0  0  0  0  0  0  0  0  0  0  0
   -1.2753    8.2223    1.6157 H   0  0  0  0  0  0  0  0  0  0  0  0
   -2.7704    7.3180    1.6030 H   0  0  0  0  0  0  0  0  0  0  0  0
   -1.2884    6.5487    2.1177 H   0  0  0  0  0  0  0  0  0  0  0  0
   -1.8529    7.5391   -1.9552 H   0  0  0  0  0  0  0  0  0  0  0  0
   -3.1017    7.8992   -0.7873 H   0  0  0  0  0  0  0  0  0  0  0  0
   -1.6066    8.8035   -0.7746 H   0  0  0  0  0  0  0  0  0  0  0  0
    1.8037    3.3542   -1.2378 H   0  0  0  0  0  0  0  0  0  0  0  0
    4.2882    4.9474   -1.8273 H   0  0  0  0  0  0  0  0  0  0  0  0
    3.9628    3.3279   -2.3969 H   0  0  0  0  0  0  0  0  0  0  0  0
    2.9770    4.6618   -2.9463 H   0  0  0  0  0  0  0  0  0  0  0  0
    2.6759    3.3162    1.0520 H   0  0  0  0  0  0  0  0  0  0  0  0
    3.7860    2.5382   -0.0504 H   0  0  0  0  0  0  0  0  0  0  0  0
    4.1115    4.1576    0.5192 H   0  0  0  0  0  0  0  0  0  0  0  0
   -0.5478    8.7192    3.4416 H   0  0  0  0  0  0  0  0  0  0  0  0
   -2.1462    8.8704    5.1979 H   0  0  0  0  0  0  0  0  0  0  0  0
   -3.0187    6.7974    6.3853 H   0  0  0  0  0  0  0  0  0  0  0  0
   -2.9603    4.1777    6.5975 H   0  0  0  0  0  0  0  0  0  0  0  0
   -1.9862    2.1986    5.7303 H   0  0  0  0  0  0  0  0  0  0  0  0
   -0.3091    2.1940    3.8824 H   0  0  0  0  0  0  0  0  0  0  0  0
    0.4740    3.6013    2.1531 H   0  0  0  0  0  0  0  0  0  0  0  0
    1.1107    2.3819    3.2305 H   0  0  0  0  0  0  0  0  0  0  0  0
    1.8868    2.6814    1.6939 H   0  0  0  0  0  0  0  0  0  0  0  0
   -1.2097    2.5342    2.7764 H   0  0  0  0  0  0  0  0  0  0  0  0
   -1.0642    0.7957    2.9190 H   0  0  0  0  0  0  0  0  0  0  0  0
   -3.0703    1.8690    1.6253 H   0  0  0  0  0  0  0  0  0  0  0  0
   -2.3349    0.4156    1.0929 H   0  0  0  0  0  0  0  0  0  0  0  0
   -1.7214    0.4701   -1.1684 H   0  0  0  0  0  0  0  0  0  0  0  0
   -3.1574    1.4653   -1.1952 H   0  0  0  0  0  0  0  0  0  0  0  0
   -1.7203    1.9821   -2.0442 H   0  0  0  0  0  0  0  0  0  0  0  0
  1  2  1  0  0  0  0
  1 55  1  0  0  0  0
  1 56  1  0  0  0  0
  1 57  1  0  0  0  0
  2  3  1  0  0  0  0
  2  7  1  0  0  0  0
  3  4  1  0  0  0  0
  3 58  1  0  0  0  0
  3 59  1  0  0  0  0
  4  5  1  0  0  0  0
  4 60  1  0  0  0  0
  4 61  1  0  0  0  0
  5  6  1  0  0  0  0
  5  7  1  0  0  0  0
  6 62  1  0  0  0  0
  6 63  1  0  0  0  0
  6 64  1  0  0  0  0
  7  8  1  0  0  0  0
  7 11  1  0  0  0  0
  7 26  1  0  0  0  0
  7 49  1  0  0  0  0
  7 53  1  0  0  0  0
  8  9  2  0  0  0  0
  9 10  2  0  0  0  0
 11 12  1  0  0  0  0
 11 24  1  0  0  0  0
 12 13  1  0  0  0  0
 12 17  2  0  0  0  0
 13 14  2  0  0  0  0
 13 21  1  0  0  0  0
 14 15  1  0  0  0  0
 14 65  1  0  0  0  0
 15 16  2  0  0  0  0
 15 66  1  0  0  0  0
 16 17  1  0  0  0  0
 16 67  1  0  0  0  0
 17 18  1  0  0  0  0
 18 19  1  0  0  0  0
 18 20  1  0  0  0  0
 18 68  1  0  0  0  0
 19 69  1  0  0  0  0
 19 70  1  0  0  0  0
 19 71  1  0  0  0  0
 20 72  1  0  0  0  0
 20 73  1  0  0  0  0
 20 74  1  0  0  0  0
 21 22  1  0  0  0  0
 21 23  1  0  0  0  0
 21 75  1  0  0  0  0
 22 76  1  0  0  0  0
 22 77  1  0  0  0  0
 22 78  1  0  0  0  0
 23 79  1  0  0  0  0
 23 80  1  0  0  0  0
 23 81  1  0  0  0  0
 24 25  2  0  0  0  0
 24 47  1  0  0  0  0
 25 26  1  0  0  0  0
 25 39  1  0  0  0  0
 26 27  1  0  0  0  0
 27 28  1  0  0  0  0
 27 32  2  0  0  0  0
 28 29  2  0  0  0  0
 28 36  1  0  0  0  0
 29 30  1  0  0  0  0
 29 82  1  0  0  0  0
 30 31  2  0  0  0  0
 30 83  1  0  0  0  0
 31 32  1  0  0  0  0
 31 84  1  0  0  0  0
 32 33  1  0  0  0  0
 33 34  1  0  0  0  0
 33 35  1  0  0  0  0
 33 85  1  0  0  0  0
 34 86  1  0  0  0  0
 34 87  1  0  0  0  0
 34 88  1  0  0  0  0
 35 89  1  0  0  0  0
 35 90  1  0  0  0  0
 35 91  1  0  0  0  0
 36 37  1  0  0  0  0
 36 38  1  0  0  0  0
 36 92  1  0  0  0  0
 37 93  1  0  0  0  0
 37 94  1  0  0  0  0
 37 95  1  0  0  0  0
 38 96  1  0  0  0  0
 38 97  1  0  0  0  0
 38 98  1  0  0  0  0
 39 40  1  0  0  0  0
 39 48  2  0  0  0  0
 40 41  2  0  0  0  0
 40 99  1  0  0  0  0
 41 42  1  0  0  0  0
 41100  1  0  0  0  0
 42 43  2  0  0  0  0
 42101  1  0  0  0  0
 43 44  1  0  0  0  0
 43 48  1  0  0  0  0
 44 45  2  0  0  0  0
 44102  1  0  0  0  0
 45 46  1  0  0  0  0
 45103  1  0  0  0  0
 46 47  2  0  0  0  0
 46104  1  0  0  0  0
 47 48  1  0  0  0  0
 49 50  1  0  0  0  0
 49 51  1  0  0  0  0
 50105  1  0  0  0  0
 50106  1  0  0  0  0
 50107  1  0  0  0  0
 51 52  1  0  0  0  0
 51108  1  0  0  0  0
 51109  1  0  0  0  0
 52 53  1  0  0  0  0
 52110  1  0  0  0  0
 52111  1  0  0  0  0
 53 54  1  0  0  0  0
 54112  1  0  0  0  0
 54113  1  0  0  0  0
 54114  1  0  0  0  0
M  END
$$$$
