
 OpenBabel09252518483D

 47 52  0  0  0  0  0  0  0  0999 V2000
    1.0693   -0.0266    0.0670 H   0  0  0  0  0  0  0  0  0  0  0  0
    2.1393   -0.0266    0.0670 C   0  0  0  0  0  0  0  0  0  0  0  0
    2.7971   -0.1249   -1.0682 N   0  0  0  0  0  4  0  0  0  0  0  0
    2.1568   -0.2423   -2.4524 C   0  0  0  0  0  0  0  0  0  0  0  0
    2.3439    0.6522   -3.0090 H   0  0  0  0  0  0  0  0  0  0  0  0
    2.5772   -1.0790   -2.9702 H   0  0  0  0  0  0  0  0  0  0  0  0
    0.6478   -0.4423   -2.3008 C   0  0  0  0  0  0  0  0  0  0  0  0
    0.4235   -0.7154   -1.2908 H   0  0  0  0  0  0  0  0  0  0  0  0
    0.1410    0.4680   -2.5446 H   0  0  0  0  0  0  0  0  0  0  0  0
    0.1840   -1.5536   -3.2455 C   0  0  0  0  0  0  0  0  0  0  0  0
   -0.8420   -1.3960   -3.5052 H   0  0  0  0  0  0  0  0  0  0  0  0
    0.7823   -1.5407   -4.1325 H   0  0  0  0  0  0  0  0  0  0  0  0
    0.3296   -2.8883   -2.5607 N   0  0  0  0  0  4  0  0  0  0  0  0
    1.1049   -3.8094   -3.0775 C   0  0  0  0  0  0  0  0  0  0  0  0
    1.8580   -3.5321   -4.3683 C   0  0  0  0  0  0  0  0  0  0  0  0
    2.9100   -3.6198   -4.1933 H   0  0  0  0  0  0  0  0  0  0  0  0
    1.5603   -4.2393   -5.1140 H   0  0  0  0  0  0  0  0  0  0  0  0
    1.6340   -2.5418   -4.7062 H   0  0  0  0  0  0  0  0  0  0  0  0
    1.2501   -5.1432   -2.3928 C   0  0  0  0  0  3  0  0  0  0  0  0
    2.6998   -5.5579   -2.4023 C   0  0  0  0  0  3  0  0  0  0  0  0
    3.1663   -5.0319   -3.2089 H   0  0  0  0  0  0  0  0  0  0  0  0
    3.5559   -5.3323   -1.1831 C   0  0  0  0  0  3  0  0  0  0  0  0
    4.1191   -6.2177   -0.9737 H   0  0  0  0  0  0  0  0  0  0  0  0
    4.4655   -4.2262   -1.4293 C   0  0  0  0  0  3  0  0  0  0  0  0
    4.0784   -3.6676   -2.2557 H   0  0  0  0  0  0  0  0  0  0  0  0
    4.6665   -3.3669   -0.4181 C   0  0  0  0  0  3  0  0  0  0  0  0
    3.7092   -2.9656   -0.1588 H   0  0  0  0  0  0  0  0  0  0  0  0
    5.5951   -2.1942   -0.5998 C   0  0  0  0  0  3  0  0  0  0  0  0
    4.9311   -0.9286   -0.0534 O   0  0  0  0  0  0  0  0  0  0  0  0
    4.3205   -0.1371   -1.2085 Cu  0  0  0  0  0  0  0  0  0  0  0  0
    5.8161    1.0008   -1.8322 O   0  0  0  0  0  0  0  0  0  0  0  0
    6.5734    1.4414   -0.7147 C   0  0  0  0  0  3  0  0  0  0  0  0
    7.1127    0.2032    0.0030 C   0  0  0  0  0  3  0  0  0  0  0  0
    7.7038    0.5064    0.8418 H   0  0  0  0  0  0  0  0  0  0  0  0
    5.9432   -0.6556    0.4873 C   0  0  0  0  0  3  0  0  0  0  0  0
    6.3207   -1.5216    0.9898 H   0  0  0  0  0  0  0  0  0  0  0  0
    5.0787    0.1575    1.4524 C   0  0  0  0  0  3  0  0  0  0  0  0
    3.9091   -0.7014    1.9366 C   0  0  0  0  0  3  0  0  0  0  0  0
    4.2866   -1.5674    2.4391 H   0  0  0  0  0  0  0  0  0  0  0  0
    3.0446    0.1117    2.9017 C   0  0  0  0  0  3  0  0  0  0  0  0
    3.6356    0.4150    3.7405 H   0  0  0  0  0  0  0  0  0  0  0  0
    2.5045    1.3499    2.1845 C   0  0  0  0  0  3  0  0  0  0  0  0
    1.9005    1.9186    2.8603 H   0  0  0  0  0  0  0  0  0  0  0  0
    3.6749    2.2087    1.6997 C   0  0  0  0  0  3  0  0  0  0  0  0
    4.2658    2.5123    2.5384 H   0  0  0  0  0  0  0  0  0  0  0  0
    4.5394    1.3957    0.7346 C   0  0  0  0  0  3  0  0  0  0  0  0
    5.7089    2.2545    0.2504 C   0  0  0  0  0  3  0  0  0  0  0  0
  1  2  1  0  0  0  0
  2  3  2  0  0  0  0
  2 47  1  0  0  0  0
  3  4  1  0  0  0  0
  3 30  1  0  0  0  0
  4  5  1  0  0  0  0
  4  6  1  0  0  0  0
  4  7  1  0  0  0  0
  7  8  1  0  0  0  0
  7  9  1  0  0  0  0
  7 10  1  0  0  0  0
 10 11  1  0  0  0  0
 10 12  1  0  0  0  0
 10 13  1  0  0  0  0
 13 14  2  0  0  0  0
 13 30  1  0  0  0  0
 14 15  1  0  0  0  0
 14 19  1  0  0  0  0
 15 16  1  0  0  0  0
 15 17  1  0  0  0  0
 15 18  1  0  0  0  0
 19 20  1  0  0  0  0
 19 28  1  0  0  0  0
 20 21  1  0  0  0  0
 20 22  1  0  0  0  0
 22 23  1  0  0  0  0
 22 24  1  0  0  0  0
 24 25  1  0  0  0  0
 24 26  1  0  0  0  0
 26 27  1  0  0  0  0
 26 28  1  0  0  0  0
 28 29  1  0  0  0  0
 29 30  1  0  0  0  0
 30 31  1  0  0  0  0
 31 32  1  0  0  0  0
 32 33  1  0  0  0  0
 32 47  1  0  0  0  0
 33 34  1  0  0  0  0
 33 35  1  0  0  0  0
 35 36  1  0  0  0  0
 35 37  1  0  0  0  0
 37 38  1  0  0  0  0
 37 46  1  0  0  0  0
 38 39  1  0  0  0  0
 38 40  1  0  0  0  0
 40 41  1  0  0  0  0
 40 42  1  0  0  0  0
 42 43  1  0  0  0  0
 42 44  1  0  0  0  0
 44 45  1  0  0  0  0
 44 46  1  0  0  0  0
 46 47  1  0  0  0  0
M  END
$$$$
