
  --CCDC--092525    3D                              

 57 64  0  0  0  0  0  0  0  0999 V2000
    0.2146    0.1496    0.6757 C      0
    1.4779    0.1288   -0.0491 C      0
    2.4580    0.0796   -0.6321 N      0
    4.3412   -0.0156   -1.7672 Fe     1
    5.0606    0.1654    0.3052 N      0
    5.4336    0.2592    1.3798 C      0
    5.9339    0.4197    2.7387 C      0
    6.5143   -0.1237   -2.1523 C      0
    7.1093   -0.9008   -1.1147 N      0
    6.6836   -2.2861   -0.9765 C      0
    5.8651   -2.5934   -2.1364 N      0
    6.2680   -3.2247   -3.3159 C      0
    5.1941   -3.2662   -4.1083 C      0
    4.1431   -2.6679   -3.4042 N      0
    2.7699   -2.5449   -3.8740 C      0
    2.1349   -1.2746   -3.5514 N      0
    0.7660   -1.0931   -3.3242 C      0
    0.5784    0.2061   -3.0839 C      0
    1.8372    0.8075   -3.1520 N      0
    2.1527    2.2156   -2.9580 C      0
    3.5313    2.4015   -3.3750 N      0
    3.9883    2.8432   -4.6186 C      0
    5.3220    2.8219   -4.5598 C      0
    5.6687    2.3769   -3.2793 N      0
    7.0259    2.2425   -2.7687 C      0
    7.2354    1.0807   -1.9157 N      0
    8.1248    1.0171   -0.8373 C      0
    8.0536   -0.2206   -0.3422 C      0
    4.5537    2.0793   -2.4464 C      0
    2.9106   -0.0845   -3.4496 C      0
    4.5037   -2.1963   -2.1109 C      0
   -0.3658    1.0333    0.4187 H      0
    0.3864    0.1594    1.7497 H      0
   -0.3813   -0.7288    0.4358 H      0
    6.0954   -0.5480    3.2085 H      0
    5.2261    0.9778    3.3479 H      0
    6.8800    0.9575    2.7398 H      0
    7.5553   -2.9512   -0.9408 H      0
    6.1024   -2.4161   -0.0553 H      0
    7.2590   -3.6025   -3.5448 H      0
    5.1431   -3.6946   -5.1037 H      0
    2.7549   -2.6802   -4.9626 H      0
    2.1741   -3.3552   -3.4361 H      0
   -0.0005   -1.8606   -3.3498 H      0
   -0.3657    0.6970   -2.8736 H      0
    1.4859    2.8422   -3.5635 H      0
    2.0336    2.4899   -1.9024 H      0
    3.3794    3.1372   -5.4672 H      0
    6.0070    3.1054   -5.3518 H      0
    7.7167    2.1855   -3.6192 H      0
    7.2796    3.1465   -2.2015 H      0
    8.7646    1.8177   -0.4819 H      0
    8.6193   -0.6204    0.4929 H      0
    6.7355   -0.5355   -3.1491 H      0
    4.5223    2.7694   -1.5891 H      0
    3.3927    0.1650   -4.4077 H      0
    3.9554   -2.7509   -1.3341 H      0
  1  2  1
  2  3  3
  3  4  1
  4  5  1
  5  6  3
  6  7  1
  4  8  1
  8  9  1
  9 10  1
 10 11  1
 11 12  1
 12 13  2
 13 14  1
 14 15  1
 15 16  1
 16 17  1
 17 18  2
 18 19  1
 19 20  1
 20 21  1
 21 22  1
 22 23  2
 23 24  1
 24 25  1
 25 26  1
  8 26  1
 26 27  1
 27 28  2
  9 28  1
 24 29  1
  4 29  1
 21 29  1
 19 30  1
  4 30  1
 16 30  1
 14 31  1
  4 31  1
 11 31  1
  1 32  1
  1 33  1
  1 34  1
  7 35  1
  7 36  1
  7 37  1
 10 38  1
 10 39  1
 12 40  1
 13 41  1
 15 42  1
 15 43  1
 17 44  1
 18 45  1
 20 46  1
 20 47  1
 22 48  1
 23 49  1
 25 50  1
 25 51  1
 27 52  1
 28 53  1
  8 54  1
 29 55  1
 30 56  1
 31 57  1
M  CHG  1   4   3
M  END
$$$$
