
 OpenBabel09252514373D

 26 26  0  0  0  0  0  0  0  0999 V2000
    3.1203    0.0990    0.7316 H   0  0  0  0  0  0  0  0  0  0  0  0
    2.8523   -0.1982   -0.2765 C   0  0  0  0  0  3  0  0  0  0  0  0
    2.1580   -1.4655   -0.4809 C   0  0  0  0  0  3  0  0  0  0  0  0
    1.9760   -2.1100    0.3724 H   0  0  0  0  0  0  0  0  0  0  0  0
    1.8939   -1.9400   -1.8423 C   0  0  0  0  0  3  0  0  0  0  0  0
    1.6033   -3.3538   -2.0812 N   0  0  0  0  0  0  0  0  0  0  0  0
    1.5776   -4.1080   -1.0988 O   0  0  0  0  0  0  0  0  0  0  0  0
    1.4111   -3.7107   -3.2515 O   0  0  0  0  0  0  0  0  0  0  0  0
    2.1385   -1.0421   -2.9742 C   0  0  0  0  0  3  0  0  0  0  0  0
    1.9558   -1.3739   -3.9906 H   0  0  0  0  0  0  0  0  0  0  0  0
    2.8552    0.2104   -2.7613 C   0  0  0  0  0  3  0  0  0  0  0  0
    3.1957    0.7789   -3.6215 H   0  0  0  0  0  0  0  0  0  0  0  0
    3.3903    0.5354   -1.4315 C   0  0  0  0  0  3  0  0  0  0  0  0
    4.6859    1.2659   -1.3429 C   0  0  0  0  0  0  0  0  0  0  0  0
    5.4280    1.4274   -2.3021 O   0  0  0  0  0  0  0  0  0  0  0  0
    4.9433    1.6252   -0.0623 O   0  0  0  0  0  0  0  0  0  0  0  0
    6.3076    1.9767    0.2367 C   0  0  0  0  0  0  0  0  0  0  0  0
    6.9747    1.2156   -0.1873 H   0  0  0  0  0  0  0  0  0  0  0  0
    6.6732    3.3585   -0.2937 C   0  0  0  0  0  0  0  0  0  0  0  0
    5.9700    4.1170    0.0645 H   0  0  0  0  0  0  0  0  0  0  0  0
    7.6855    3.6386    0.0156 H   0  0  0  0  0  0  0  0  0  0  0  0
    6.6408    3.3894   -1.3866 H   0  0  0  0  0  0  0  0  0  0  0  0
    6.4389    1.9406    1.7559 C   0  0  0  0  0  0  0  0  0  0  0  0
    5.7947    2.6950    2.2217 H   0  0  0  0  0  0  0  0  0  0  0  0
    6.1166    0.9692    2.1467 H   0  0  0  0  0  0  0  0  0  0  0  0
    7.4713    2.1197    2.0706 H   0  0  0  0  0  0  0  0  0  0  0  0
  1  2  1  0  0  0  0
  2  3  1  0  0  0  0
  2 13  1  0  0  0  0
  3  4  1  0  0  0  0
  3  5  1  0  0  0  0
  5  6  1  0  0  0  0
  5  9  1  0  0  0  0
  6  7  2  0  0  0  0
  6  8  2  0  0  0  0
  9 10  1  0  0  0  0
  9 11  1  0  0  0  0
 11 12  1  0  0  0  0
 11 13  1  0  0  0  0
 13 14  1  0  0  0  0
 14 15  2  0  0  0  0
 14 16  1  0  0  0  0
 16 17  1  0  0  0  0
 17 18  1  0  0  0  0
 17 19  1  0  0  0  0
 17 23  1  0  0  0  0
 19 20  1  0  0  0  0
 19 21  1  0  0  0  0
 19 22  1  0  0  0  0
 23 24  1  0  0  0  0
 23 25  1  0  0  0  0
 23 26  1  0  0  0  0
M  END
$$$$
