
 OpenBabel09252517513D

 36 38  0  0  1  0  0  0  0  0999 V2000
    2.4455    1.0532    1.6959 H   0  0  0  0  0  0  0  0  0  0  0  0
    3.4219    0.8323    1.3183 C   0  0  0  0  0  0  0  0  0  0  0  0
    4.2864    1.0521    1.9093 H   0  0  0  0  0  0  0  0  0  0  0  0
    3.5643    0.2720    0.0869 C   0  0  0  0  0  0  0  0  0  0  0  0
    2.6998    0.0522   -0.5041 H   0  0  0  0  0  0  0  0  0  0  0  0
    4.9515   -0.0418   -0.4495 C   0  0  1  0  0  0  0  0  0  0  0  0
    5.5237    0.8605   -0.5083 H   0  0  0  0  0  0  0  0  0  0  0  0
    5.6453   -1.0219    0.4823 C   0  0  0  0  0  0  0  0  0  0  0  0
    5.0731   -1.9242    0.5411 H   0  0  0  0  0  0  0  0  0  0  0  0
    6.6218   -1.2428    0.1047 H   0  0  0  0  0  0  0  0  0  0  0  0
    5.7294   -0.5887    1.4571 H   0  0  0  0  0  0  0  0  0  0  0  0
    4.8320   -0.6571   -1.8343 C   0  0  1  0  0  0  0  0  0  0  0  0
    4.2598   -1.5594   -1.7754 H   0  0  0  0  0  0  0  0  0  0  0  0
    4.1610    0.2908   -2.7355 N   0  0  0  0  0  0  0  0  0  0  0  0
    2.9832    0.6906   -2.4745 N   0  0  0  0  0  4  0  0  0  0  0  0
    1.8054    1.0904   -2.2135 N   0  0  0  0  0  0  0  0  0  0  0  0
    6.2233   -0.9662   -2.3626 C   0  0  2  0  0  0  0  0  0  0  0  0
    5.1533   -0.9662   -2.3626 H   0  0  0  0  0  0  0  0  0  0  0  0
    6.9937   -1.9538   -1.9382 C   0  0  1  0  0  0  0  0  0  0  0  0
    6.3867   -2.5055   -1.2512 H   0  0  0  0  0  0  0  0  0  0  0  0
    8.3923   -1.4927   -2.1368 C   0  0  1  0  0  0  0  0  0  0  0  0
    8.4731   -1.9173   -1.1579 H   0  0  0  0  0  0  0  0  0  0  0  0
    8.3033   -0.2827   -2.6629 C   0  0  2  0  0  0  0  0  0  0  0  0
    9.1291    0.3393   -2.9390 H   0  0  0  0  0  0  0  0  0  0  0  0
    8.7188    1.1788   -2.6180 C   0  0  0  0  0  0  0  0  0  0  0  0
    9.4175    1.3111   -3.4175 H   0  0  0  0  0  0  0  0  0  0  0  0
    7.9188    1.8815   -2.7236 H   0  0  0  0  0  0  0  0  0  0  0  0
    9.2127    1.3386   -1.6824 H   0  0  0  0  0  0  0  0  0  0  0  0
    7.0056    0.0365   -2.7936 Fe  0  0  0  0  0  0  0  0  0  0  0  0
    7.5254   -0.4991   -0.8521 C   0  0  0  0  0  0  0  0  0  0  0  0
    7.8298   -0.8128    0.2848 O   0  0  0  0  0  0  0  0  0  0  0  0
    8.0787    1.0797   -1.3491 C   0  0  0  0  0  0  0  0  0  0  0  0
    8.7072    1.6907   -0.5032 O   0  0  0  0  0  0  0  0  0  0  0  0
    5.6559   -1.4988   -3.1776 C   0  0  0  0  0  0  0  0  0  0  0  0
    4.8655   -2.3980   -3.4025 O   0  0  0  0  0  0  0  0  0  0  0  0
    1.3267    0.7557   -1.3773 H   0  0  0  0  0  0  0  0  0  0  0  0
  1  2  1  0  0  0  0
  2  3  1  0  0  0  0
  2  4  2  0  0  0  0
  4  5  1  0  0  0  0
  4  6  1  0  0  0  0
  6  7  1  6  0  0  0
  6  8  1  0  0  0  0
  6 12  1  0  0  0  0
  8  9  1  0  0  0  0
  8 10  1  0  0  0  0
  8 11  1  0  0  0  0
 12 13  1  1  0  0  0
 12 14  1  0  0  0  0
 14 15  2  0  0  0  0
 15 16  2  0  0  0  0
 16 36  1  0  0  0  0
 17 19  2  0  0  0  0
 17 29  1  0  0  0  0
 17 18  1  6  0  0  0
 17 12  1  0  0  0  0
 19 20  1  1  0  0  0
 19 21  1  0  0  0  0
 19 29  1  0  0  0  0
 21 22  1  1  0  0  0
 21 23  2  0  0  0  0
 21 29  1  0  0  0  0
 23 29  1  0  0  0  0
 23 25  1  0  0  0  0
 23 24  1  6  0  0  0
 25 26  1  0  0  0  0
 25 27  1  0  0  0  0
 25 28  1  0  0  0  0
 29 30  1  0  0  0  0
 29 32  1  0  0  0  0
 29 34  1  0  0  0  0
 30 31  3  0  0  0  0
 32 33  3  0  0  0  0
 34 35  3  0  0  0  0
M  END
$$$$
