
  --CCDC--092525    3D                              

 68 74  0  0  0  0  0  0  0  0999 V2000
    1.1114    0.5412   -2.4345 C      0
    2.0450    0.8680   -0.9616 S      0
    2.8781   -0.6935   -0.8444 C      0
    1.1165    0.8687    0.1363 O      0
    0.8359    3.0358    1.6380 U      3
   -0.8997    5.0099    1.8154 O      0
   -2.0779    4.7143    1.1020 C      0
   -2.9813    5.5225    0.9760 O      0
   -2.2602    3.2944    0.5734 C      0
   -1.0620    2.7367    0.0344 N      0
   -0.2333    3.5614   -0.8863 C      0
    0.5685    4.9186   -0.5573 C      0
    1.4267    5.2672    0.6138 N      0
    2.8685    5.1717    0.9231 C      0
    3.4655    4.2454    2.0818 C      0
    3.3402    2.7706    2.0837 N      0
    2.9944    1.7194    3.0497 C      0
    2.1249    0.5119    2.5084 C      0
    0.6594    0.6621    2.4941 N      0
   -0.3834    0.3787    1.4455 C      0
   -0.9710    1.2575    0.2186 C      0
    0.2374    0.5519    3.8517 C      0
   -0.9516    1.4401    4.1639 C      0
   -1.7556    1.1138    5.0198 O      0
   -1.0263    2.6551    3.4705 O      0
    4.1801    2.1951    1.0866 C      0
    3.8289    2.7657   -0.2668 C      0
    4.6574    2.8050   -1.1599 O      0
    2.4925    3.1961   -0.4261 O      0
    1.4009    4.0249    4.0245 O      0
    0.2618    4.7253    4.5442 S      0
    0.5846    4.8520    6.2835 C      0
    0.5441    6.4186    4.0987 C      0
    0.4237    1.3571   -2.6467 H      0
    0.5301   -0.3722   -2.3275 H      0
    1.7718    0.4237   -3.2912 H      0
    3.5272   -0.8492   -1.7036 H      0
    2.1614   -1.5113   -0.8090 H      0
    3.4898   -0.7394    0.0541 H      0
   -2.6236    2.6532    1.3860 H      0
   -3.0439    3.2861   -0.1941 H      0
    0.4554    2.8713   -1.3764 H      0
   -0.9083    3.8302   -1.7081 H      0
    1.1546    5.1568   -1.4535 H      0
   -0.2102    5.6912   -0.5471 H      0
    0.9855    6.0242    1.1738 H      0
    3.4686    5.1433    0.0064 H      0
    3.1109    6.1827    1.2730 H      0
    4.5454    4.4378    2.0759 H      0
    3.1691    4.6644    3.0433 H      0
    3.9468    1.2985    3.3949 H      0
    2.5365    2.1131    3.9594 H      0
    2.5375    0.1215    1.5756 H      0
    2.3075   -0.3141    3.2068 H      0
   -0.2301   -0.6519    1.0911 H      0
   -1.2915    0.2377    2.0414 H      0
   -2.0331    0.9892    0.2774 H      0
   -0.7472    0.8035   -0.7554 H      0
   -0.0080   -0.4930    4.0785 H      0
    1.0683    0.8213    4.5153 H      0
    5.2274    2.4230    1.3205 H      0
    4.1150    1.1035    1.0586 H      0
   -0.1676    5.4684    6.7714 H      0
    0.5726    3.8695    6.7505 H      0
    1.5592    5.3009    6.4631 H      0
   -0.2105    7.0647    4.5424 H      0
    0.5071    6.5469    3.0192 H      0
    1.5204    6.7506    4.4456 H      0
  1  2  1
  2  3  1
  2  4  2
  4  5  1
  5  6  1
  6  7  1
  7  8  2
  7  9  1
  9 10  1
  5 10  1
 10 11  1
 11 12  1
 12 13  1
  5 13  1
 13 14  1
 14 15  1
 15 16  1
  5 16  1
 16 17  1
 17 18  1
 18 19  1
  5 19  1
 19 20  1
 20 21  1
 10 21  1
 19 22  1
 22 23  1
 23 24  2
 23 25  1
  5 25  1
 16 26  1
 26 27  1
 27 28  2
 27 29  1
  5 29  1
  5 30  1
 30 31  2
 31 32  1
 31 33  1
  1 34  1
  1 35  1
  1 36  1
  3 37  1
  3 38  1
  3 39  1
  9 40  1
  9 41  1
 11 42  1
 11 43  1
 12 44  1
 12 45  1
 13 46  1
 14 47  1
 14 48  1
 15 49  1
 15 50  1
 17 51  1
 17 52  1
 18 53  1
 18 54  1
 20 55  1
 20 56  1
 21 57  1
 21 58  1
 22 59  1
 22 60  1
 26 61  1
 26 62  1
 32 63  1
 32 64  1
 32 65  1
 33 66  1
 33 67  1
 33 68  1
M  CHG  1   5   1
M  END
$$$$
