
     RDKit          3D

 44 43  0  0  0  0  0  0  0  0999 V2000
   -1.3086   -1.8911   -1.2958 C   0  0  0  0  0  0  0  0  0  0  0  0
   -1.3864   -0.6135   -0.1564 P   0  0  0  0  0  5  0  0  0  0  0  0
   -2.6133   -0.7036    1.1625 C   0  0  0  0  0  0  0  0  0  0  0  0
   -2.5120    0.3555   -1.2942 C   0  0  0  0  0  0  0  0  0  0  0  0
    0.0551    0.5758    0.1404 Pt  0  0  0  0  0  6  0  0  0  0  0  0
   -0.1034    1.1712   -1.6116 N   0  0  0  0  0  0  0  0  0  0  0  0
   -0.1822    2.3607   -1.8897 N   0  0  0  0  0  4  0  0  0  0  0  0
    0.0728    3.5122   -2.2508 N   0  0  0  0  0  2  0  0  0  0  0  0
    0.2153    0.3403    1.9790 C   0  0  0  0  0  0  0  0  0  0  0  0
   -1.3123    1.8701    0.6404 C   0  0  0  0  0  0  0  0  0  0  0  0
    1.1910    2.1202    0.3355 C   0  0  0  0  0  0  0  0  0  0  0  0
    1.5592   -0.5351   -0.1827 P   0  0  0  0  0  5  0  0  0  0  0  0
    1.4340   -2.0608    0.8350 C   0  0  0  0  0  0  0  0  0  0  0  0
    1.6706   -1.2771   -1.7665 C   0  0  0  0  0  0  0  0  0  0  0  0
    3.0321    0.0161    0.6837 C   0  0  0  0  0  0  0  0  0  0  0  0
   -2.4029   -2.3017   -1.3193 H   0  0  0  0  0  0  0  0  0  0  0  0
   -1.2247   -1.6554   -2.4073 H   0  0  0  0  0  0  0  0  0  0  0  0
   -0.7772   -2.8510   -1.2952 H   0  0  0  0  0  0  0  0  0  0  0  0
   -0.7634   -1.4491    0.6230 H   0  0  0  0  0  0  0  0  0  0  0  0
   -3.5445   -0.0689    1.0246 H   0  0  0  0  0  0  0  0  0  0  0  0
   -3.1167   -1.7105    1.2525 H   0  0  0  0  0  0  0  0  0  0  0  0
   -2.3203   -0.3682    2.1628 H   0  0  0  0  0  0  0  0  0  0  0  0
   -3.3860   -0.2827   -1.4290 H   0  0  0  0  0  0  0  0  0  0  0  0
   -2.7949    1.1937   -0.6926 H   0  0  0  0  0  0  0  0  0  0  0  0
   -1.8724    0.5491   -2.1436 H   0  0  0  0  0  0  0  0  0  0  0  0
    1.3115    0.3271    2.2259 H   0  0  0  0  0  0  0  0  0  0  0  0
   -0.3406   -0.5271    2.3093 H   0  0  0  0  0  0  0  0  0  0  0  0
   -0.1676    1.1984    2.5844 H   0  0  0  0  0  0  0  0  0  0  0  0
   -2.1321    1.3896    1.1401 H   0  0  0  0  0  0  0  0  0  0  0  0
   -0.8591    2.5341    1.4544 H   0  0  0  0  0  0  0  0  0  0  0  0
   -1.4795    2.5647   -0.1713 H   0  0  0  0  0  0  0  0  0  0  0  0
    1.5054    2.2351    1.3660 H   0  0  0  0  0  0  0  0  0  0  0  0
    0.6787    3.0510    0.0437 H   0  0  0  0  0  0  0  0  0  0  0  0
    2.0043    2.0110   -0.4173 H   0  0  0  0  0  0  0  0  0  0  0  0
    2.0782    0.4136   -0.9896 H   0  0  0  0  0  0  0  0  0  0  0  0
    1.2215   -1.6511    1.7947 H   0  0  0  0  0  0  0  0  0  0  0  0
    2.4357   -2.6002    0.7888 H   0  0  0  0  0  0  0  0  0  0  0  0
    0.7748   -2.7055    0.3393 H   0  0  0  0  0  0  0  0  0  0  0  0
    1.4087   -2.3941   -1.8007 H   0  0  0  0  0  0  0  0  0  0  0  0
    2.7152   -1.4532   -2.2072 H   0  0  0  0  0  0  0  0  0  0  0  0
    0.9809   -0.9550   -2.5743 H   0  0  0  0  0  0  0  0  0  0  0  0
    3.1210    1.0800    0.9844 H   0  0  0  0  0  0  0  0  0  0  0  0
    3.9933   -0.4156    0.2803 H   0  0  0  0  0  0  0  0  0  0  0  0
    3.1408   -0.3995    1.7445 H   0  0  0  0  0  0  0  0  0  0  0  0
  1  2  1  0
  2  3  1  0
  2  4  1  0
  2  5  1  0
  5  6  1  0
  6  7  2  0
  7  8  2  0
  5  9  1  0
  5 10  1  0
  5 11  1  0
  5 12  1  0
 12 13  1  0
 12 14  1  0
 12 15  1  0
  1 16  1  0
  1 17  1  0
  1 18  1  0
  2 19  1  0
  3 20  1  0
  3 21  1  0
  3 22  1  0
  4 23  1  0
  4 24  1  0
  4 25  1  0
  9 26  1  0
  9 27  1  0
  9 28  1  0
 10 29  1  0
 10 30  1  0
 10 31  1  0
 11 32  1  0
 11 33  1  0
 11 34  1  0
 12 35  1  0
 13 36  1  0
 13 37  1  0
 13 38  1  0
 14 39  1  0
 14 40  1  0
 14 41  1  0
 15 42  1  0
 15 43  1  0
 15 44  1  0
M  CHG  2   7   1   8  -1
M  END
