
 OpenBabel09252515393D

 36 38  0  0  1  0  0  0  0  0999 V2000
    8.4253   -7.0209    3.3516 H   0  0  0  0  0  0  0  0  0  0  0  0
    7.8379   -6.6072    2.5587 C   0  0  0  0  0  0  0  0  0  0  0  0
    7.2184   -7.2447    1.9631 H   0  0  0  0  0  0  0  0  0  0  0  0
    7.8787   -5.2708    2.3078 C   0  0  0  0  0  0  0  0  0  0  0  0
    8.4982   -4.6333    2.9034 H   0  0  0  0  0  0  0  0  0  0  0  0
    7.0442   -4.6831    1.1814 C   0  0  1  0  0  0  0  0  0  0  0  0
    7.3335   -5.1294    0.2530 H   0  0  0  0  0  0  0  0  0  0  0  0
    5.5730   -4.9632    1.4415 C   0  0  0  0  0  0  0  0  0  0  0  0
    5.2837   -4.5169    2.3700 H   0  0  0  0  0  0  0  0  0  0  0  0
    4.9856   -4.5495    0.6486 H   0  0  0  0  0  0  0  0  0  0  0  0
    5.4142   -6.0203    1.4890 H   0  0  0  0  0  0  0  0  0  0  0  0
    7.2699   -3.1815    1.1139 C   0  0  1  0  0  0  0  0  0  0  0  0
    6.9806   -2.7353    2.0424 H   0  0  0  0  0  0  0  0  0  0  0  0
    8.6927   -2.9107    0.8624 N   0  0  0  0  0  0  0  0  0  0  0  0
    9.5720   -3.3166    1.6853 N   0  0  0  0  0  4  0  0  0  0  0  0
   10.4513   -3.7226    2.5082 N   0  0  0  0  0  0  0  0  0  0  0  0
    6.3588   -2.6187    0.0353 C   0  0  2  0  0  0  0  0  0  0  0  0
    5.2888   -2.6187    0.0353 H   0  0  0  0  0  0  0  0  0  0  0  0
    5.8689   -2.4356   -1.1794 C   0  0  1  0  0  0  0  0  0  0  0  0
    6.6788   -2.3433   -1.8725 H   0  0  0  0  0  0  0  0  0  0  0  0
    6.4520   -1.1579   -1.6648 C   0  0  1  0  0  0  0  0  0  0  0  0
    6.9833   -1.4045   -0.7694 H   0  0  0  0  0  0  0  0  0  0  0  0
    7.2303   -0.7213   -0.6888 C   0  0  2  0  0  0  0  0  0  0  0  0
    6.4949    0.0250   -0.4717 H   0  0  0  0  0  0  0  0  0  0  0  0
    8.3234   -1.5751   -1.3106 C   0  0  0  0  0  0  0  0  0  0  0  0
    7.9762   -2.5872   -1.3071 H   0  0  0  0  0  0  0  0  0  0  0  0
    8.4858   -1.2572   -2.3193 H   0  0  0  0  0  0  0  0  0  0  0  0
    9.2411   -1.5109   -0.7643 H   0  0  0  0  0  0  0  0  0  0  0  0
    7.1713   -1.5916    0.3321 Fe  0  0  0  0  0  0  0  0  0  0  0  0
    7.5161   -1.2528    2.3551 C   0  0  0  0  0  0  0  0  0  0  0  0
    7.7111   -1.0542    3.5410 O   0  0  0  0  0  0  0  0  0  0  0  0
    7.3778    0.3463   -0.3947 C   0  0  0  0  0  0  0  0  0  0  0  0
    7.6688    1.4537   -0.8101 O   0  0  0  0  0  0  0  0  0  0  0  0
    5.8131   -1.0460    1.8100 C   0  0  0  0  0  0  0  0  0  0  0  0
    5.0481   -0.7178    2.6992 O   0  0  0  0  0  0  0  0  0  0  0  0
   11.3941   -3.9364    2.1830 H   0  0  0  0  0  0  0  0  0  0  0  0
  1  2  1  0  0  0  0
  2  3  1  0  0  0  0
  2  4  2  0  0  0  0
  4  5  1  0  0  0  0
  4  6  1  0  0  0  0
  6  7  1  6  0  0  0
  6  8  1  0  0  0  0
  6 12  1  0  0  0  0
  8  9  1  0  0  0  0
  8 10  1  0  0  0  0
  8 11  1  0  0  0  0
 12 13  1  1  0  0  0
 12 14  1  0  0  0  0
 14 15  2  0  0  0  0
 15 16  2  0  0  0  0
 16 36  1  0  0  0  0
 17 19  2  0  0  0  0
 17 29  1  0  0  0  0
 17 18  1  1  0  0  0
 17 12  1  0  0  0  0
 19 21  1  0  0  0  0
 19 29  1  0  0  0  0
 19 20  1  6  0  0  0
 21 23  2  0  0  0  0
 21 29  1  0  0  0  0
 21 22  1  6  0  0  0
 23 29  1  0  0  0  0
 23 24  1  1  0  0  0
 23 25  1  0  0  0  0
 25 26  1  0  0  0  0
 25 27  1  0  0  0  0
 25 28  1  0  0  0  0
 29 30  1  0  0  0  0
 29 32  1  0  0  0  0
 29 34  1  0  0  0  0
 30 31  3  0  0  0  0
 32 33  3  0  0  0  0
 34 35  3  0  0  0  0
M  END
$$$$
