
 OpenBabel09252519493D

 48 56  0  0  1  0  0  0  0  0999 V2000
    1.0213   -0.0206   -0.0955 H   0  0  0  0  0  0  0  0  0  0  0  0
    2.0913   -0.0206   -0.0955 C   0  0  0  0  0  3  0  0  0  0  0  0
    2.5980    0.7040    1.1409 C   0  0  0  0  0  3  0  0  0  0  0  0
    3.6680    0.7040    1.1409 H   0  0  0  0  0  0  0  0  0  0  0  0
    2.0913    2.1370    1.1315 C   0  0  0  0  0  3  0  0  0  0  0  0
    3.2857    3.0375    0.8937 C   0  0  0  0  0  3  0  0  0  0  0  0
    3.5838    3.0104   -0.6121 C   0  0  0  0  0  3  0  0  0  0  0  0
    3.8396    1.5795   -1.0565 C   0  0  0  0  0  3  0  0  0  0  0  0
    2.9743    0.9834   -0.8549 H   0  0  0  0  0  0  0  0  0  0  0  0
    4.1343    1.5570   -2.5475 C   0  0  0  0  0  3  0  0  0  0  0  0
    4.9997    2.1532   -2.7490 H   0  0  0  0  0  0  0  0  0  0  0  0
    4.3902    0.1261   -2.9918 C   0  0  0  0  0  3  0  0  0  0  0  0
    5.2865   -0.1578   -3.5026 H   0  0  0  0  0  0  0  0  0  0  0  0
    4.4869    2.5250    1.6714 C   0  0  0  0  0  3  0  0  0  0  0  0
    2.5980    0.6878   -1.3412 C   0  0  0  0  0  3  0  0  0  0  0  0
    3.1989    0.1159   -2.0169 H   0  0  0  0  0  0  0  0  0  0  0  0
    2.3758    3.5749   -1.3651 Ir  0  0  0  0  0  0  0  0  0  0  0  0
    2.4388    5.2101    0.4312 Cl  0  0  0  0  0  0  0  0  0  0  0  0
    1.1168    2.8569   -0.9758 C   0  0  0  0  0  0  0  0  0  0  0  0
    0.1827    3.3451   -0.7919 H   0  0  0  0  0  0  0  0  0  0  0  0
    1.0502    3.7552   -1.5532 H   0  0  0  0  0  0  0  0  0  0  0  0
    0.9785    2.2045    0.1657 C   0  0  1  0  0  0  0  0  0  0  0  0
    0.3505    1.6658    0.8442 H   0  0  0  0  0  0  0  0  0  0  0  0
    3.5055    5.7569   -3.0436 C   0  0  2  0  0  0  0  0  0  0  0  0
    3.7334    6.8766   -4.0460 C   0  0  0  0  0  0  0  0  0  0  0  0
    2.8209    7.4161   -4.1915 H   0  0  0  0  0  0  0  0  0  0  0  0
    4.4851    7.5408   -3.6736 H   0  0  0  0  0  0  0  0  0  0  0  0
    4.0547    6.4612   -4.9783 H   0  0  0  0  0  0  0  0  0  0  0  0
    3.3023    5.9941   -1.5441 C   0  0  2  0  0  0  0  0  0  0  0  0
    3.9982    7.2738   -1.1099 C   0  0  0  0  0  0  0  0  0  0  0  0
    5.0553    7.1112   -1.0774 H   0  0  0  0  0  0  0  0  0  0  0  0
    3.7786    8.0539   -1.8085 H   0  0  0  0  0  0  0  0  0  0  0  0
    3.6510    7.5570   -0.1382 H   0  0  0  0  0  0  0  0  0  0  0  0
    2.2331    5.0477   -1.0467 C   0  0  2  0  0  0  0  0  0  0  0  0
    1.4643    5.8572   -0.0152 C   0  0  0  0  0  0  0  0  0  0  0  0
    2.0312    6.7245    0.2522 H   0  0  0  0  0  0  0  0  0  0  0  0
    0.5239    6.1588   -0.4269 H   0  0  0  0  0  0  0  0  0  0  0  0
    1.2969    5.2582    0.8555 H   0  0  0  0  0  0  0  0  0  0  0  0
    2.6069    3.4262   -2.8733 C   0  0  2  0  0  0  0  0  0  0  0  0
    2.2421    2.4381   -3.9691 C   0  0  0  0  0  0  0  0  0  0  0  0
    2.2708    2.9310   -4.9184 H   0  0  0  0  0  0  0  0  0  0  0  0
    2.9417    1.6285   -3.9665 H   0  0  0  0  0  0  0  0  0  0  0  0
    1.2571    2.0588   -3.7938 H   0  0  0  0  0  0  0  0  0  0  0  0
    3.8081    4.2771   -3.2874 C   0  0  2  0  0  0  0  0  0  0  0  0
    5.0094    4.1771   -4.2133 C   0  0  0  0  0  0  0  0  0  0  0  0
    5.4809    3.2252   -4.0841 H   0  0  0  0  0  0  0  0  0  0  0  0
    4.6870    4.2806   -5.2283 H   0  0  0  0  0  0  0  0  0  0  0  0
    5.7060    4.9548   -3.9792 H   0  0  0  0  0  0  0  0  0  0  0  0
  1  2  1  0  0  0  0
  2  3  1  0  0  0  0
  2 15  1  0  0  0  0
  3  5  1  0  0  0  0
  3  4  1  0  0  0  0
  5  6  1  0  0  0  0
  5 22  1  0  0  0  0
  6  7  1  0  0  0  0
  6 14  1  0  0  0  0
  7  8  1  0  0  0  0
  7 17  1  0  0  0  0
  8 10  1  0  0  0  0
  8  9  1  0  0  0  0
 10 12  1  0  0  0  0
 10 11  1  0  0  0  0
 12 14  1  0  0  0  0
 12 13  1  0  0  0  0
 14 15  1  0  0  0  0
 15 16  1  0  0  0  0
 17 19  1  0  0  0  0
 17 22  1  0  0  0  0
 17 24  1  0  0  0  0
 17 29  1  0  0  0  0
 17 34  1  0  0  0  0
 17 39  1  0  0  0  0
 17 44  1  0  0  0  0
 17 18  1  0  0  0  0
 19 22  2  0  0  0  0
 19 20  1  0  0  0  0
 19 21  1  0  0  0  0
 22 23  1  1  0  0  0
 24 29  1  0  0  0  0
 24 44  1  0  0  0  0
 24 25  1  1  0  0  0
 25 26  1  0  0  0  0
 25 27  1  0  0  0  0
 25 28  1  0  0  0  0
 29 34  1  0  0  0  0
 29 30  1  1  0  0  0
 30 31  1  0  0  0  0
 30 32  1  0  0  0  0
 30 33  1  0  0  0  0
 34 39  1  0  0  0  0
 34 35  1  1  0  0  0
 35 36  1  0  0  0  0
 35 37  1  0  0  0  0
 35 38  1  0  0  0  0
 39 44  1  0  0  0  0
 39 40  1  6  0  0  0
 40 41  1  0  0  0  0
 40 42  1  0  0  0  0
 40 43  1  0  0  0  0
 44 45  1  6  0  0  0
 45 46  1  0  0  0  0
 45 47  1  0  0  0  0
 45 48  1  0  0  0  0
M  END
$$$$
