
  --CCDC--092525    3D                              

 75 79  0  0  0  0  0  0  0  0999 V2000
    1.5490   -0.4090   -0.4066 H      0
    1.6741    0.5835    0.0135 C      0
    1.4410    1.7002   -0.7651 C      0
    1.0861    1.5629   -1.7812 H      0
    1.6350    2.9758   -0.3009 C      0
    2.1381    3.1731    1.0239 C      0
    2.2013    2.0271    1.8562 C      0
    2.0258    0.7326    1.3161 C      0
    2.1506   -0.1407    1.9478 H      0
    2.3910    2.2208    3.2095 C      0
    2.4458    1.3648    3.8738 H      0
    2.4388    3.5000    3.7318 C      0
    2.4203    3.6877    5.1330 C      0
    2.3884    2.8267    5.7923 H      0
    2.4236    4.9383    5.6568 C      0
    2.3811    5.0799    6.7317 H      0
    2.4886    6.0291    4.8154 C      0
    2.4989    7.0225    5.2515 H      0
    2.5655    5.9091    3.4515 C      0
    2.5023    4.6086    2.8409 C      0
    2.5073    4.3861    1.4992 N      0
    3.4174    5.7379    0.1668 Ir     0
    4.3383    6.6943   -0.7959 H      0
    2.0270    6.6011    0.2569 H      0
    5.1437    4.0719    0.2312 Cl     0
    2.5205    4.9680   -1.9942 P      0
    1.2644    5.6272   -3.1239 C      0
    0.7054    4.7832   -3.5563 H      0
    1.9315    6.3747   -4.2801 C      0
    1.1880    6.7114   -4.9995 H      0
    2.6370    5.7298   -4.7998 H      0
    2.4718    7.2479   -3.9205 H      0
    0.2693    6.5829   -2.4585 C      0
   -0.4238    6.0635   -1.8020 H      0
   -0.3209    7.0974   -3.2141 H      0
    0.7927    7.3363   -1.8736 H      0
    3.6559    3.9953   -3.0226 C      0
    3.2062    3.9422   -4.0262 H      0
    3.8844    2.5483   -2.5840 C      0
    3.0677    1.9170   -2.9227 H      0
    3.9654    2.4571   -1.5051 H      0
    4.7993    2.1593   -3.0261 H      0
    4.9997    4.7084   -3.1854 C      0
    5.7271    4.0525   -3.6591 H      0
    5.4021    5.0191   -2.2251 H      0
    4.8905    5.5947   -3.8069 H      0
    1.1621    4.1046   -1.1742 C      0
    0.5987    4.8145   -0.5571 H      0
    0.4687    3.7072   -1.9252 H      0
    4.3706    7.1942    1.9063 P      0
    4.3696    9.0026    2.0604 C      0
    4.3278    9.2570    3.1308 H      0
    3.1990    9.6914    1.3495 C      0
    2.2913    9.7029    1.9479 H      0
    2.9783    9.1952    0.4068 H      0
    3.4528   10.7260    1.1288 H      0
    5.6508    9.6050    1.4756 C      0
    6.5357    9.0741    1.8173 H      0
    5.7490   10.6484    1.7678 H      0
    5.6387    9.5658    0.3883 H      0
    5.7568    6.5331    2.8791 C      0
    6.6309    6.4963    2.2107 H      0
    5.5742    5.1358    3.4788 C      0
    5.0670    4.4614    2.7977 H      0
    4.9975    5.1796    4.3988 H      0
    6.5414    4.7015    3.7228 H      0
    6.0947    7.4598    4.0493 C      0
    6.9531    7.0825    4.6012 H      0
    5.2552    7.5265    4.7382 H      0
    6.3286    8.4648    3.7094 H      0
    2.7621    7.2101    2.7281 C      0
    1.9471    7.4031    2.0221 H      0
    2.7466    8.0231    3.4645 H      0
    2.7391    6.3376   -2.1828 H      0
    4.8257    7.7352    0.6989 H      0
  1  2  1
  2  3  4
  3  4  1
  3  5  4
  5  6  4
  6  7  4
  7  8  4
  2  8  4
  8  9  1
  7 10  4
 10 11  1
 10 12  4
 12 13  4
 13 14  1
 13 15  4
 15 16  1
 15 17  4
 17 18  1
 17 19  4
 19 20  4
 12 20  4
 20 21  4
  6 21  4
 21 22  1
 22 23  1
 22 24  1
 22 25  1
 22 26  1
 26 27  1
 27 28  1
 27 29  1
 29 30  1
 29 31  1
 29 32  1
 27 33  1
 33 34  1
 33 35  1
 33 36  1
 26 37  1
 37 38  1
 37 39  1
 39 40  1
 39 41  1
 39 42  1
 37 43  1
 43 44  1
 43 45  1
 43 46  1
 26 47  1
  5 47  1
 47 48  1
 47 49  1
 22 50  1
 50 51  1
 51 52  1
 51 53  1
 53 54  1
 53 55  1
 53 56  1
 51 57  1
 57 58  1
 57 59  1
 57 60  1
 50 61  1
 61 62  1
 61 63  1
 63 64  1
 63 65  1
 63 66  1
 61 67  1
 67 68  1
 67 69  1
 67 70  1
 50 71  1
 19 71  1
 71 72  1
 71 73  1
 26 74  1
 50 75  1
M  END
$$$$
