
 OpenBabel09252514033D

 26 26  0  0  0  0  0  0  0  0999 V2000
    3.1736    0.0740    0.8543 H   0  0  0  0  0  0  0  0  0  0  0  0
    2.9027   -0.2216   -0.1535 C   0  0  0  0  0  3  0  0  0  0  0  0
    2.1932   -1.4808   -0.3554 C   0  0  0  0  0  3  0  0  0  0  0  0
    2.0023   -2.1208    0.4994 H   0  0  0  0  0  0  0  0  0  0  0  0
    1.9205   -1.9538   -1.7155 C   0  0  0  0  0  3  0  0  0  0  0  0
    1.5971   -3.3611   -1.9503 N   0  0  0  0  0  0  0  0  0  0  0  0
    1.5532   -4.1115   -0.9658 O   0  0  0  0  0  0  0  0  0  0  0  0
    1.3970   -3.7168   -3.1197 O   0  0  0  0  0  0  0  0  0  0  0  0
    2.1801   -1.0633   -2.8496 C   0  0  0  0  0  3  0  0  0  0  0  0
    1.9893   -1.3934   -3.8651 H   0  0  0  0  0  0  0  0  0  0  0  0
    2.9127    0.1804   -2.6397 C   0  0  0  0  0  3  0  0  0  0  0  0
    3.2583    0.7441   -3.5010 H   0  0  0  0  0  0  0  0  0  0  0  0
    3.4450    0.5072   -1.3093 C   0  0  0  0  0  3  0  0  0  0  0  0
    4.7341    1.2489   -1.2178 C   0  0  0  0  0  0  0  0  0  0  0  0
    5.4750    1.4212   -2.1756 O   0  0  0  0  0  0  0  0  0  0  0  0
    4.9870    1.6069    0.0643 O   0  0  0  0  0  0  0  0  0  0  0  0
    6.3465    1.9753    0.3648 C   0  0  0  0  0  0  0  0  0  0  0  0
    7.0242    1.2272   -0.0654 H   0  0  0  0  0  0  0  0  0  0  0  0
    6.6911    3.3661   -0.1557 C   0  0  0  0  0  0  0  0  0  0  0  0
    5.9776    4.1117    0.2094 H   0  0  0  0  0  0  0  0  0  0  0  0
    7.6997    3.6586    0.1541 H   0  0  0  0  0  0  0  0  0  0  0  0
    6.6559    3.4046   -1.2483 H   0  0  0  0  0  0  0  0  0  0  0  0
    6.4794    1.9298    1.8836 C   0  0  0  0  0  0  0  0  0  0  0  0
    5.8245    2.6711    2.3555 H   0  0  0  0  0  0  0  0  0  0  0  0
    6.1716    0.9508    2.2672 H   0  0  0  0  0  0  0  0  0  0  0  0
    7.5093    2.1215    2.1991 H   0  0  0  0  0  0  0  0  0  0  0  0
  1  2  1  0  0  0  0
  2  3  1  0  0  0  0
  2 13  1  0  0  0  0
  3  4  1  0  0  0  0
  3  5  1  0  0  0  0
  5  6  1  0  0  0  0
  5  9  1  0  0  0  0
  6  7  2  0  0  0  0
  6  8  2  0  0  0  0
  9 10  1  0  0  0  0
  9 11  1  0  0  0  0
 11 12  1  0  0  0  0
 11 13  1  0  0  0  0
 13 14  1  0  0  0  0
 14 15  2  0  0  0  0
 14 16  1  0  0  0  0
 16 17  1  0  0  0  0
 17 18  1  0  0  0  0
 17 19  1  0  0  0  0
 17 23  1  0  0  0  0
 19 20  1  0  0  0  0
 19 21  1  0  0  0  0
 19 22  1  0  0  0  0
 23 24  1  0  0  0  0
 23 25  1  0  0  0  0
 23 26  1  0  0  0  0
M  END
$$$$
