
 OpenBabel09252516073D

 57 60  0  0  0  0  0  0  0  0999 V2000
    1.3937    0.0615    1.4755 H   0  0  0  0  0  0  0  0  0  0  0  0
    1.9658    0.0432    0.5555 C   0  0  0  0  0  3  0  0  0  0  0  0
    2.0088   -1.1734   -0.2407 C   0  0  0  0  0  3  0  0  0  0  0  0
    1.5430   -2.0744    0.1416 H   0  0  0  0  0  0  0  0  0  0  0  0
    2.9311   -1.2729   -1.3639 C   0  0  0  0  0  3  0  0  0  0  0  0
    3.1363   -2.2515   -1.7830 H   0  0  0  0  0  0  0  0  0  0  0  0
    3.8186   -0.1571   -1.6949 C   0  0  0  0  0  3  0  0  0  0  0  0
    4.8612   -0.4336   -2.6003 N   0  0  0  0  0  0  0  0  0  0  0  0
    4.8797   -0.1500   -4.0227 C   0  0  0  0  0  0  0  0  0  0  0  0
    4.2480    0.9631   -4.4640 C   0  0  0  0  0  0  0  0  0  0  0  0
    5.0188    1.8557   -5.4230 C   0  0  0  0  0  0  0  0  0  0  0  0
    5.6800    2.6213   -6.2456 C   0  0  0  0  0  0  0  0  0  0  0  0
    6.4508    3.5138   -7.2046 C   0  0  0  0  0  3  0  0  0  0  0  0
    5.7462    3.6290   -8.5020 C   0  0  0  0  0  3  0  0  0  0  0  0
    5.5193    2.7255   -9.0554 H   0  0  0  0  0  0  0  0  0  0  0  0
    4.9911    4.8488   -8.7888 C   0  0  0  0  0  3  0  0  0  0  0  0
    4.2266    4.8393   -9.5563 H   0  0  0  0  0  0  0  0  0  0  0  0
    5.0966    5.9934   -7.8913 C   0  0  0  0  0  3  0  0  0  0  0  0
    4.4366    6.8436   -8.0099 H   0  0  0  0  0  0  0  0  0  0  0  0
    6.0725    5.9758   -6.8096 C   0  0  0  0  0  3  0  0  0  0  0  0
    6.2740    6.8703   -6.2352 H   0  0  0  0  0  0  0  0  0  0  0  0
    6.9120    4.7938   -6.6291 C   0  0  0  0  0  3  0  0  0  0  0  0
    8.2501    5.0974   -6.5023 O   0  0  0  0  0  0  0  0  0  0  0  0
    9.1750    4.1541   -7.0299 C   0  0  0  0  0  0  0  0  0  0  0  0
    9.2433    3.2803   -6.3762 H   0  0  0  0  0  0  0  0  0  0  0  0
    8.9239    3.8595   -8.0552 H   0  0  0  0  0  0  0  0  0  0  0  0
   10.1571    4.6361   -7.0667 H   0  0  0  0  0  0  0  0  0  0  0  0
    2.3756    1.1382   -4.7269 Si  0  0  0  0  0  0  0  0  0  0  0  0
    1.6603   -0.5663   -5.1276 C   0  0  0  0  0  0  0  0  0  0  0  0
    1.8334   -1.2679   -4.3077 H   0  0  0  0  0  0  0  0  0  0  0  0
    0.5822   -0.4933   -5.2990 H   0  0  0  0  0  0  0  0  0  0  0  0
    2.1247   -0.9686   -6.0332 H   0  0  0  0  0  0  0  0  0  0  0  0
    1.4477    1.8455   -3.2680 C   0  0  0  0  0  0  0  0  0  0  0  0
    1.9848    2.6889   -2.8259 H   0  0  0  0  0  0  0  0  0  0  0  0
    0.4645    2.2064   -3.5878 H   0  0  0  0  0  0  0  0  0  0  0  0
    1.2740    1.0902   -2.4995 H   0  0  0  0  0  0  0  0  0  0  0  0
    2.0204    2.2619   -6.2154 C   0  0  0  0  0  0  0  0  0  0  0  0
    2.3894    3.2751   -6.0301 H   0  0  0  0  0  0  0  0  0  0  0  0
    2.4980    1.8717   -7.1190 H   0  0  0  0  0  0  0  0  0  0  0  0
    0.9425    2.3174   -6.3946 H   0  0  0  0  0  0  0  0  0  0  0  0
    6.1893   -0.5514   -4.5609 C   0  0  0  0  0  3  0  0  0  0  0  0
    6.5372   -0.9636   -5.9199 C   0  0  0  0  0  3  0  0  0  0  0  0
    5.7619   -1.2514   -6.6196 H   0  0  0  0  0  0  0  0  0  0  0  0
    7.9438   -1.0773   -6.2880 C   0  0  0  0  0  3  0  0  0  0  0  0
    8.2155   -1.4354   -7.2739 H   0  0  0  0  0  0  0  0  0  0  0  0
    8.9858   -0.7229   -5.3251 C   0  0  0  0  0  3  0  0  0  0  0  0
    9.9634   -0.4317   -5.6919 H   0  0  0  0  0  0  0  0  0  0  0  0
    8.6368   -0.4914   -3.9223 C   0  0  0  0  0  3  0  0  0  0  0  0
    9.3294    0.0259   -3.2690 H   0  0  0  0  0  0  0  0  0  0  0  0
    7.2389   -0.5823   -3.5550 C   0  0  0  0  0  3  0  0  0  0  0  0
    6.4983   -0.3397   -2.0138 S   0  0  0  0  0  0  0  0  0  0  0  0
    6.7807    1.0153   -1.5681 O   0  0  0  0  0  0  0  0  0  0  0  0
    6.7486   -1.4800   -1.1623 O   0  0  0  0  0  0  0  0  0  0  0  0
    3.7857    1.0479   -0.8740 C   0  0  0  0  0  3  0  0  0  0  0  0
    4.4190    1.8938   -1.1111 H   0  0  0  0  0  0  0  0  0  0  0  0
    2.8464    1.1548    0.2337 C   0  0  0  0  0  3  0  0  0  0  0  0
    2.8509    2.0400    0.8575 H   0  0  0  0  0  0  0  0  0  0  0  0
  1  2  1  0  0  0  0
  2  3  1  0  0  0  0
  2 56  1  0  0  0  0
  3  4  1  0  0  0  0
  3  5  1  0  0  0  0
  5  6  1  0  0  0  0
  5  7  1  0  0  0  0
  7  8  1  0  0  0  0
  7 54  1  0  0  0  0
  8  9  1  0  0  0  0
  8 51  1  0  0  0  0
  9 10  2  0  0  0  0
  9 41  1  0  0  0  0
 10 11  1  0  0  0  0
 10 28  1  0  0  0  0
 11 12  3  0  0  0  0
 12 13  1  0  0  0  0
 13 14  1  0  0  0  0
 13 22  1  0  0  0  0
 14 15  1  0  0  0  0
 14 16  1  0  0  0  0
 16 17  1  0  0  0  0
 16 18  1  0  0  0  0
 18 19  1  0  0  0  0
 18 20  1  0  0  0  0
 20 21  1  0  0  0  0
 20 22  1  0  0  0  0
 22 23  1  0  0  0  0
 23 24  1  0  0  0  0
 24 25  1  0  0  0  0
 24 26  1  0  0  0  0
 24 27  1  0  0  0  0
 28 29  1  0  0  0  0
 28 33  1  0  0  0  0
 28 37  1  0  0  0  0
 29 30  1  0  0  0  0
 29 31  1  0  0  0  0
 29 32  1  0  0  0  0
 33 34  1  0  0  0  0
 33 35  1  0  0  0  0
 33 36  1  0  0  0  0
 37 38  1  0  0  0  0
 37 39  1  0  0  0  0
 37 40  1  0  0  0  0
 41 42  1  0  0  0  0
 41 50  1  0  0  0  0
 42 43  1  0  0  0  0
 42 44  1  0  0  0  0
 44 45  1  0  0  0  0
 44 46  1  0  0  0  0
 46 47  1  0  0  0  0
 46 48  1  0  0  0  0
 48 49  1  0  0  0  0
 48 50  1  0  0  0  0
 50 51  1  0  0  0  0
 51 52  2  0  0  0  0
 51 53  2  0  0  0  0
 54 55  1  0  0  0  0
 54 56  1  0  0  0  0
 56 57  1  0  0  0  0
M  END
$$$$
