
 OpenBabel09252518403D

 80 84  0  0  0  0  0  0  0  0999 V2000
    1.0743   -0.0661   -0.0107 Cl  0  0  0  0  0  0  0  0  0  0  0  0
    3.5543   -0.0661   -0.0107 Ru  0  0  0  0  0  0  0  0  0  0  0  0
    2.7343   -0.7682   -0.7342 C   0  0  0  0  0  0  0  0  0  0  0  0
    1.7591   -0.0975   -1.5942 C   0  0  0  0  0  0  0  0  0  0  0  0
    0.8604   -0.8144   -2.3869 C   0  0  0  0  0  0  0  0  0  0  0  0
   -0.0368   -0.1429   -3.1690 C   0  0  0  0  0  0  0  0  0  0  0  0
   -0.0597    1.2457   -3.1959 C   0  0  0  0  0  0  0  0  0  0  0  0
    0.8155    1.9790   -2.4252 C   0  0  0  0  0  0  0  0  0  0  0  0
    1.7356    1.3152   -1.6149 C   0  0  0  0  0  0  0  0  0  0  0  0
    2.6935    2.0393   -0.7700 C   0  0  0  0  0  0  0  0  0  0  0  0
    3.5881    2.7629   -1.7633 C   0  0  0  0  0  0  0  0  0  0  0  0
    3.5543    1.3291   -0.0107 N   0  0  0  0  0  0  0  0  0  0  0  0
    4.3086    2.2016   -0.9222 C   0  0  0  0  0  0  0  0  0  0  0  0
    4.8496    1.6415   -0.6317 C   0  0  0  0  0  0  0  0  0  0  0  0
    4.7943   -0.0661   -2.1584 Cl  0  0  0  0  0  0  0  0  0  0  0  0
    4.6643   -0.0661    1.9119 C   0  0  0  0  0  3  0  0  0  0  0  0
    5.9685    0.7601    1.7929 N   0  0  0  0  0  0  0  0  0  0  0  0
    6.2635    1.1433    3.2675 C   0  0  0  0  0  0  0  0  0  0  0  0
    4.8717    1.4244    3.8718 C   0  0  0  0  0  0  0  0  0  0  0  0
    3.8552    0.6553    3.0095 N   0  0  0  0  0  0  0  0  0  0  0  0
    2.3976    0.6159    3.1955 C   0  0  0  0  0  0  0  0  0  0  0  0
    1.6547    1.7782    3.1415 C   0  0  0  0  0  0  0  0  0  0  0  0
    2.3522    3.1048    2.8879 C   0  0  0  0  0  0  0  0  0  0  0  0
    0.3418    1.7505    3.3082 C   0  0  0  0  0  0  0  0  0  0  0  0
   -0.3054    0.6177    3.5250 C   0  0  0  0  0  0  0  0  0  0  0  0
   -1.8148    0.6373    3.7032 C   0  0  0  0  0  0  0  0  0  0  0  0
    0.3743   -0.5832    3.5915 C   0  0  0  0  0  0  0  0  0  0  0  0
    1.7518   -0.5900    3.4273 C   0  0  0  0  0  0  0  0  0  0  0  0
    2.5363   -1.8899    3.4999 C   0  0  0  0  0  0  0  0  0  0  0  0
    6.7355    1.0972    0.5850 C   0  0  0  0  0  0  0  0  0  0  0  0
    8.0629    0.7303    0.4887 C   0  0  0  0  0  0  0  0  0  0  0  0
    8.7058   -0.0664    1.6123 C   0  0  0  0  0  0  0  0  0  0  0  0
    8.7821    1.0646   -0.5711 C   0  0  0  0  0  0  0  0  0  0  0  0
    8.2608    1.7518   -1.5737 C   0  0  0  0  0  0  0  0  0  0  0  0
    9.1263    2.1053   -2.7722 C   0  0  0  0  0  0  0  0  0  0  0  0
    6.9390    2.1521   -1.5443 C   0  0  0  0  0  0  0  0  0  0  0  0
    6.1577    1.8242   -0.4459 C   0  0  0  0  0  0  0  0  0  0  0  0
    4.7009    2.2517   -0.3733 C   0  0  0  0  0  0  0  0  0  0  0  0
    2.7723   -1.8370   -0.7008 H   0  0  0  0  0  0  0  0  0  0  0  0
    0.8742   -1.8843   -2.3820 H   0  0  0  0  0  0  0  0  0  0  0  0
   -0.7308   -0.6941   -3.7686 H   0  0  0  0  0  0  0  0  0  0  0  0
   -0.7648    1.7513   -3.8220 H   0  0  0  0  0  0  0  0  0  0  0  0
    0.7893    3.0485   -2.4483 H   0  0  0  0  0  0  0  0  0  0  0  0
    2.1245    2.6570   -0.1071 H   0  0  0  0  0  0  0  0  0  0  0  0
    2.9904    3.3929   -2.3884 H   0  0  0  0  0  0  0  0  0  0  0  0
    4.3006    3.3595   -1.2328 H   0  0  0  0  0  0  0  0  0  0  0  0
    4.1030    2.0458   -2.3678 H   0  0  0  0  0  0  0  0  0  0  0  0
    3.3891    1.6158    0.9542 H   0  0  0  0  0  0  0  0  0  0  0  0
    5.1018    2.6781   -0.3849 H   0  0  0  0  0  0  0  0  0  0  0  0
    4.7185    1.6162   -1.7185 H   0  0  0  0  0  0  0  0  0  0  0  0
    3.6545    2.9455   -1.3266 H   0  0  0  0  0  0  0  0  0  0  0  0
    4.9966    2.7013   -0.6363 H   0  0  0  0  0  0  0  0  0  0  0  0
    5.6344    1.1750   -0.0736 H   0  0  0  0  0  0  0  0  0  0  0  0
    4.8606    1.2755   -1.6371 H   0  0  0  0  0  0  0  0  0  0  0  0
    6.9224    1.9824    3.3488 H   0  0  0  0  0  0  0  0  0  0  0  0
    6.7438    0.3363    3.7804 H   0  0  0  0  0  0  0  0  0  0  0  0
    4.6580    2.4728    3.8778 H   0  0  0  0  0  0  0  0  0  0  0  0
    4.8323    1.0803    4.8842 H   0  0  0  0  0  0  0  0  0  0  0  0
    1.9650    3.5460    1.9933 H   0  0  0  0  0  0  0  0  0  0  0  0
    2.1789    3.7625    3.7139 H   0  0  0  0  0  0  0  0  0  0  0  0
    3.4036    2.9396    2.7780 H   0  0  0  0  0  0  0  0  0  0  0  0
   -0.2092    2.6667    3.2665 H   0  0  0  0  0  0  0  0  0  0  0  0
   -2.0668    1.2485    4.5445 H   0  0  0  0  0  0  0  0  0  0  0  0
   -2.2728    1.0366    2.8224 H   0  0  0  0  0  0  0  0  0  0  0  0
   -2.1675   -0.3594    3.8680 H   0  0  0  0  0  0  0  0  0  0  0  0
   -0.1550   -1.4963    3.7673 H   0  0  0  0  0  0  0  0  0  0  0  0
    2.3955   -2.3383    4.4611 H   0  0  0  0  0  0  0  0  0  0  0  0
    2.1893   -2.5587    2.7401 H   0  0  0  0  0  0  0  0  0  0  0  0
    3.5762   -1.6878    3.3494 H   0  0  0  0  0  0  0  0  0  0  0  0
    9.0590   -1.0012    1.2299 H   0  0  0  0  0  0  0  0  0  0  0  0
    9.5274    0.4868    2.0170 H   0  0  0  0  0  0  0  0  0  0  0  0
    7.9834   -0.2456    2.3810 H   0  0  0  0  0  0  0  0  0  0  0  0
    9.8102    0.7716   -0.6179 H   0  0  0  0  0  0  0  0  0  0  0  0
    9.9559    2.6995   -2.4502 H   0  0  0  0  0  0  0  0  0  0  0  0
    9.4867    1.2074   -3.2291 H   0  0  0  0  0  0  0  0  0  0  0  0
    8.5455    2.6579   -3.4809 H   0  0  0  0  0  0  0  0  0  0  0  0
    6.5230    2.7081   -2.3585 H   0  0  0  0  0  0  0  0  0  0  0  0
    4.6400    3.3192   -0.4152 H   0  0  0  0  0  0  0  0  0  0  0  0
    4.1642    1.8312   -1.1979 H   0  0  0  0  0  0  0  0  0  0  0  0
    4.2730    1.9059    0.5444 H   0  0  0  0  0  0  0  0  0  0  0  0
  1  2  1  0  0  0  0
  2  3  2  0  0  0  0
  2 12  1  0  0  0  0
  2 15  1  0  0  0  0
  2 16  1  0  0  0  0
  3  4  1  0  0  0  0
  3 39  1  0  0  0  0
  4  5  1  0  0  0  0
  4  9  2  0  0  0  0
  5  6  2  0  0  0  0
  5 40  1  0  0  0  0
  6  7  1  0  0  0  0
  6 41  1  0  0  0  0
  7  8  2  0  0  0  0
  7 42  1  0  0  0  0
  8  9  1  0  0  0  0
  8 43  1  0  0  0  0
  9 10  1  0  0  0  0
 10 11  1  0  0  0  0
 10 12  1  0  0  0  0
 10 44  1  0  0  0  0
 11 45  1  0  0  0  0
 11 46  1  0  0  0  0
 11 47  1  0  0  0  0
 12 13  1  0  0  0  0
 12 14  1  0  0  0  0
 12 48  1  0  0  0  0
 13 49  1  0  0  0  0
 13 50  1  0  0  0  0
 13 51  1  0  0  0  0
 14 52  1  0  0  0  0
 14 53  1  0  0  0  0
 14 54  1  0  0  0  0
 16 17  1  0  0  0  0
 16 20  1  0  0  0  0
 17 18  1  0  0  0  0
 17 30  1  0  0  0  0
 18 19  1  0  0  0  0
 18 55  1  0  0  0  0
 18 56  1  0  0  0  0
 19 20  1  0  0  0  0
 19 57  1  0  0  0  0
 19 58  1  0  0  0  0
 20 21  1  0  0  0  0
 21 22  1  0  0  0  0
 21 28  2  0  0  0  0
 22 23  1  0  0  0  0
 22 24  2  0  0  0  0
 23 59  1  0  0  0  0
 23 60  1  0  0  0  0
 23 61  1  0  0  0  0
 24 25  1  0  0  0  0
 24 62  1  0  0  0  0
 25 26  1  0  0  0  0
 25 27  2  0  0  0  0
 26 63  1  0  0  0  0
 26 64  1  0  0  0  0
 26 65  1  0  0  0  0
 27 28  1  0  0  0  0
 27 66  1  0  0  0  0
 28 29  1  0  0  0  0
 29 67  1  0  0  0  0
 29 68  1  0  0  0  0
 29 69  1  0  0  0  0
 30 31  1  0  0  0  0
 30 37  2  0  0  0  0
 31 32  1  0  0  0  0
 31 33  2  0  0  0  0
 32 70  1  0  0  0  0
 32 71  1  0  0  0  0
 32 72  1  0  0  0  0
 33 34  1  0  0  0  0
 33 73  1  0  0  0  0
 34 35  1  0  0  0  0
 34 36  2  0  0  0  0
 35 74  1  0  0  0  0
 35 75  1  0  0  0  0
 35 76  1  0  0  0  0
 36 37  1  0  0  0  0
 36 77  1  0  0  0  0
 37 38  1  0  0  0  0
 38 78  1  0  0  0  0
 38 79  1  0  0  0  0
 38 80  1  0  0  0  0
M  END
$$$$
