
 OpenBabel09252517503D

 53 57  0  0  0  0  0  0  0  0999 V2000
    0.9246    0.0511   -0.0414 I   0  0  0  0  0  0  0  0  0  0  0  0
    3.6346    0.0511   -0.0414 Cu  0  0  0  0  0  0  0  0  0  0  0  0
    4.3282    1.2539   -0.0409 S   0  0  0  0  0  3  0  0  0  0  0  0
    5.5952    1.3032    0.3046 P   0  0  0  0  0  0  0  0  0  0  0  0
    6.3534    0.0733    0.7127 C   0  0  0  0  0  0  0  0  0  0  0  0
    5.6171   -1.1706    0.3086 P   0  0  0  0  0  0  0  0  0  0  0  0
    4.3170   -1.1324   -0.0419 S   0  0  0  0  0  3  0  0  0  0  0  0
    5.7606   -2.8490   -0.4065 C   0  0  0  0  0  0  0  0  0  0  0  0
    6.1093   -3.8687    0.4636 C   0  0  0  0  0  0  0  0  0  0  0  0
    6.4582   -5.0787   -0.1816 C   0  0  0  0  0  0  0  0  0  0  0  0
    6.1546   -5.3751   -1.4322 C   0  0  0  0  0  0  0  0  0  0  0  0
    5.7514   -4.3352   -2.2230 C   0  0  0  0  0  0  0  0  0  0  0  0
    5.5160   -3.0913   -1.6890 C   0  0  0  0  0  0  0  0  0  0  0  0
    5.9410    0.2986   -0.7333 C   0  0  0  0  0  0  0  0  0  0  0  0
    6.7473    0.2700   -1.8592 C   0  0  0  0  0  0  0  0  0  0  0  0
    6.9989    1.5459   -2.4166 C   0  0  0  0  0  0  0  0  0  0  0  0
    6.2858    2.6281   -2.1628 C   0  0  0  0  0  0  0  0  0  0  0  0
    5.4574    2.5695   -1.0767 C   0  0  0  0  0  0  0  0  0  0  0  0
    5.2611    1.3896   -0.4005 C   0  0  0  0  0  0  0  0  0  0  0  0
    6.8488    2.3500    1.1302 C   0  0  0  0  0  0  0  0  0  0  0  0
    6.4982    3.2450    2.1275 C   0  0  0  0  0  0  0  0  0  0  0  0
    7.4935    4.2113    2.4064 C   0  0  0  0  0  0  0  0  0  0  0  0
    8.7620    4.1027    2.0557 C   0  0  0  0  0  0  0  0  0  0  0  0
    9.0540    3.1536    1.1158 C   0  0  0  0  0  0  0  0  0  0  0  0
    8.1005    2.2575    0.6966 C   0  0  0  0  0  0  0  0  0  0  0  0
    5.8005    0.8458   -1.4554 C   0  0  0  0  0  0  0  0  0  0  0  0
    6.5403    1.6917   -2.2652 C   0  0  0  0  0  0  0  0  0  0  0  0
    6.4730    1.3714   -3.6417 C   0  0  0  0  0  0  0  0  0  0  0  0
    6.0733    0.2077   -4.1213 C   0  0  0  0  0  0  0  0  0  0  0  0
    5.4076   -0.6118   -3.2525 C   0  0  0  0  0  0  0  0  0  0  0  0
    5.3181   -0.3021   -1.9168 C   0  0  0  0  0  0  0  0  0  0  0  0
    6.4600    0.0759    1.7774 H   0  0  0  0  0  0  0  0  0  0  0  0
    7.3133    0.0810    0.2402 H   0  0  0  0  0  0  0  0  0  0  0  0
    6.1145   -3.7520    1.5272 H   0  0  0  0  0  0  0  0  0  0  0  0
    7.0061   -5.8039    0.3830 H   0  0  0  0  0  0  0  0  0  0  0  0
    6.2207   -6.3754   -1.8065 H   0  0  0  0  0  0  0  0  0  0  0  0
    5.6173   -4.4923   -3.2729 H   0  0  0  0  0  0  0  0  0  0  0  0
    5.1320   -2.3108   -2.3121 H   0  0  0  0  0  0  0  0  0  0  0  0
    7.1439   -0.6348   -2.2701 H   0  0  0  0  0  0  0  0  0  0  0  0
    7.8245    1.6406   -3.0907 H   0  0  0  0  0  0  0  0  0  0  0  0
    6.3526    3.5036   -2.7743 H   0  0  0  0  0  0  0  0  0  0  0  0
    4.9547    3.4552   -0.7485 H   0  0  0  0  0  0  0  0  0  0  0  0
    4.5539    1.3495    0.4015 H   0  0  0  0  0  0  0  0  0  0  0  0
    5.5599    3.2088    2.6405 H   0  0  0  0  0  0  0  0  0  0  0  0
    7.1977    5.0912    2.9385 H   0  0  0  0  0  0  0  0  0  0  0  0
    9.5206    4.7240    2.4841 H   0  0  0  0  0  0  0  0  0  0  0  0
   10.0391    3.1080    0.7008 H   0  0  0  0  0  0  0  0  0  0  0  0
    8.3690    1.4780    0.0145 H   0  0  0  0  0  0  0  0  0  0  0  0
    7.1109    2.5128   -1.8843 H   0  0  0  0  0  0  0  0  0  0  0  0
    6.7663    2.1245   -4.3429 H   0  0  0  0  0  0  0  0  0  0  0  0
    6.2603   -0.0785   -5.1352 H   0  0  0  0  0  0  0  0  0  0  0  0
    4.9497   -1.5072   -3.6180 H   0  0  0  0  0  0  0  0  0  0  0  0
    4.8556   -0.9921   -1.2424 H   0  0  0  0  0  0  0  0  0  0  0  0
  1  2  1  0  0  0  0
  2  3  1  0  0  0  0
  2  7  1  0  0  0  0
  3  4  2  0  0  0  0
  4  5  1  0  0  0  0
  4 20  1  0  0  0  0
  4 26  1  0  0  0  0
  5  6  1  0  0  0  0
  5 32  1  0  0  0  0
  5 33  1  0  0  0  0
  6  7  2  0  0  0  0
  6  8  1  0  0  0  0
  6 14  1  0  0  0  0
  8  9  1  0  0  0  0
  8 13  2  0  0  0  0
  9 10  2  0  0  0  0
  9 34  1  0  0  0  0
 10 11  1  0  0  0  0
 10 35  1  0  0  0  0
 11 12  2  0  0  0  0
 11 36  1  0  0  0  0
 12 13  1  0  0  0  0
 12 37  1  0  0  0  0
 13 38  1  0  0  0  0
 14 15  1  0  0  0  0
 14 19  2  0  0  0  0
 15 16  2  0  0  0  0
 15 39  1  0  0  0  0
 16 17  1  0  0  0  0
 16 40  1  0  0  0  0
 17 18  2  0  0  0  0
 17 41  1  0  0  0  0
 18 19  1  0  0  0  0
 18 42  1  0  0  0  0
 19 43  1  0  0  0  0
 20 21  1  0  0  0  0
 20 25  2  0  0  0  0
 21 22  2  0  0  0  0
 21 44  1  0  0  0  0
 22 23  1  0  0  0  0
 22 45  1  0  0  0  0
 23 24  2  0  0  0  0
 23 46  1  0  0  0  0
 24 25  1  0  0  0  0
 24 47  1  0  0  0  0
 25 48  1  0  0  0  0
 26 27  1  0  0  0  0
 26 31  2  0  0  0  0
 27 28  2  0  0  0  0
 27 49  1  0  0  0  0
 28 29  1  0  0  0  0
 28 50  1  0  0  0  0
 29 30  2  0  0  0  0
 29 51  1  0  0  0  0
 30 31  1  0  0  0  0
 30 52  1  0  0  0  0
 31 53  1  0  0  0  0
M  END
$$$$
