
     RDKit          3D

 44 43  0  0  0  0  0  0  0  0999 V2000
    1.2783    2.0362    1.0933 C   0  0  0  0  0  0  0  0  0  0  0  0
    1.4919    0.5721    0.1692 P   0  0  0  0  0  5  0  0  0  0  0  0
    2.8641    0.3545   -0.8993 C   0  0  0  0  0  0  0  0  0  0  0  0
    2.3284   -0.2605    1.6092 C   0  0  0  0  0  0  0  0  0  0  0  0
   -0.0203   -0.5341   -0.0757 Pt  0  0  0  0  0  6  0  0  0  0  0  0
   -0.1510   -0.8764    1.7306 N   0  0  0  0  0  0  0  0  0  0  0  0
   -0.0337   -2.0246    2.1652 N   0  0  0  0  0  4  0  0  0  0  0  0
   -0.0701   -3.1447    2.6524 N   0  0  0  0  0  2  0  0  0  0  0  0
   -0.0069   -0.5401   -1.9602 C   0  0  0  0  0  0  0  0  0  0  0  0
    1.1736   -2.0191   -0.3058 C   0  0  0  0  0  0  0  0  0  0  0  0
   -1.3816   -1.8973   -0.1487 C   0  0  0  0  0  0  0  0  0  0  0  0
   -1.4238    0.7931   -0.0748 P   0  0  0  0  0  5  0  0  0  0  0  0
   -2.7807    0.1039   -1.1365 C   0  0  0  0  0  0  0  0  0  0  0  0
   -2.3695    0.8046    1.4250 C   0  0  0  0  0  0  0  0  0  0  0  0
   -1.1807    2.1640   -1.1005 C   0  0  0  0  0  0  0  0  0  0  0  0
    0.7511    2.9492    0.8673 H   0  0  0  0  0  0  0  0  0  0  0  0
    2.3407    2.4158    1.2703 H   0  0  0  0  0  0  0  0  0  0  0  0
    0.9444    1.8896    2.1715 H   0  0  0  0  0  0  0  0  0  0  0  0
    1.0357    1.3108   -0.8094 H   0  0  0  0  0  0  0  0  0  0  0  0
    3.5211    1.2779   -0.9551 H   0  0  0  0  0  0  0  0  0  0  0  0
    3.6754   -0.3935   -0.6213 H   0  0  0  0  0  0  0  0  0  0  0  0
    2.7367    0.0752   -1.9554 H   0  0  0  0  0  0  0  0  0  0  0  0
    1.5641   -0.2661    2.3756 H   0  0  0  0  0  0  0  0  0  0  0  0
    2.4780   -1.2532    1.2132 H   0  0  0  0  0  0  0  0  0  0  0  0
    3.2319    0.3254    1.7906 H   0  0  0  0  0  0  0  0  0  0  0  0
    0.9988   -0.8375   -2.3728 H   0  0  0  0  0  0  0  0  0  0  0  0
   -0.6608   -1.3317   -2.3458 H   0  0  0  0  0  0  0  0  0  0  0  0
   -0.1811    0.4709   -2.3116 H   0  0  0  0  0  0  0  0  0  0  0  0
    2.1296   -1.7061   -0.7129 H   0  0  0  0  0  0  0  0  0  0  0  0
    1.1685   -2.6395    0.5896 H   0  0  0  0  0  0  0  0  0  0  0  0
    0.7625   -2.7092   -1.1107 H   0  0  0  0  0  0  0  0  0  0  0  0
   -1.7764   -2.0021   -1.1505 H   0  0  0  0  0  0  0  0  0  0  0  0
   -2.0741   -1.7566    0.6842 H   0  0  0  0  0  0  0  0  0  0  0  0
   -0.9419   -2.9153    0.0796 H   0  0  0  0  0  0  0  0  0  0  0  0
   -0.6262    1.4710    0.7245 H   0  0  0  0  0  0  0  0  0  0  0  0
   -3.1895   -0.6998   -0.5699 H   0  0  0  0  0  0  0  0  0  0  0  0
   -2.2436   -0.1081   -2.0366 H   0  0  0  0  0  0  0  0  0  0  0  0
   -3.5501    0.9011   -1.1616 H   0  0  0  0  0  0  0  0  0  0  0  0
   -3.3306    0.1834    1.4199 H   0  0  0  0  0  0  0  0  0  0  0  0
   -2.8371    1.7852    1.7236 H   0  0  0  0  0  0  0  0  0  0  0  0
   -1.9123    0.2769    2.3183 H   0  0  0  0  0  0  0  0  0  0  0  0
   -0.2935    2.7715   -1.2369 H   0  0  0  0  0  0  0  0  0  0  0  0
   -1.4632    2.0538   -2.2030 H   0  0  0  0  0  0  0  0  0  0  0  0
   -1.9758    2.9293   -0.8181 H   0  0  0  0  0  0  0  0  0  0  0  0
  1  2  1  0
  2  3  1  0
  2  4  1  0
  2  5  1  0
  5  6  1  0
  6  7  2  0
  7  8  2  0
  5  9  1  0
  5 10  1  0
  5 11  1  0
  5 12  1  0
 12 13  1  0
 12 14  1  0
 12 15  1  0
  1 16  1  0
  1 17  1  0
  1 18  1  0
  2 19  1  0
  3 20  1  0
  3 21  1  0
  3 22  1  0
  4 23  1  0
  4 24  1  0
  4 25  1  0
  9 26  1  0
  9 27  1  0
  9 28  1  0
 10 29  1  0
 10 30  1  0
 10 31  1  0
 11 32  1  0
 11 33  1  0
 11 34  1  0
 12 35  1  0
 13 36  1  0
 13 37  1  0
 13 38  1  0
 14 39  1  0
 14 40  1  0
 14 41  1  0
 15 42  1  0
 15 43  1  0
 15 44  1  0
M  CHG  2   7   1   8  -1
M  END
