
     RDKit          3D

 26 26  0  0  0  0  0  0  0  0999 V2000
   -3.3800   -0.6488   -1.0632 C   0  0  0  0  0  0  0  0  0  0  0  0
   -2.8567   -0.1106    0.2636 C   0  0  0  0  0  0  0  0  0  0  0  0
   -3.5424    1.2023    0.6215 C   0  0  0  0  0  0  0  0  0  0  0  0
   -1.4475    0.1648    0.1496 O   0  0  0  0  0  0  0  0  0  0  0  0
   -0.6164   -0.8873    0.3470 C   0  0  0  0  0  0  0  0  0  0  0  0
   -0.9507   -2.0309    0.6102 O   0  0  0  0  0  0  0  0  0  0  0  0
    0.8040   -0.4648    0.1970 C   0  0  0  0  0  0  0  0  0  0  0  0
    1.1693    0.8561   -0.1062 C   0  0  0  0  0  0  0  0  0  0  0  0
    2.5186    1.2044   -0.2373 C   0  0  0  0  0  0  0  0  0  0  0  0
    3.5073    0.2261   -0.0643 C   0  0  0  0  0  0  0  0  0  0  0  0
    3.1546   -1.0954    0.2385 C   0  0  0  0  0  0  0  0  0  0  0  0
    1.8039   -1.4353    0.3679 C   0  0  0  0  0  0  0  0  0  0  0  0
    4.9239    0.5896   -0.2016 N   0  0  0  0  0  0  0  0  0  0  0  0
    5.7663   -0.3046   -0.0409 O   0  0  0  0  0  0  0  0  0  0  0  0
    5.1918    1.7692   -0.4699 O   0  0  0  0  0  0  0  0  0  0  0  0
   -3.1654    0.0487   -1.8805 H   0  0  0  0  0  0  0  0  0  0  0  0
   -4.4599   -0.8209   -1.0225 H   0  0  0  0  0  0  0  0  0  0  0  0
   -2.8907   -1.5935   -1.3214 H   0  0  0  0  0  0  0  0  0  0  0  0
   -3.0432   -0.8310    1.0694 H   0  0  0  0  0  0  0  0  0  0  0  0
   -4.6237    1.0715    0.7255 H   0  0  0  0  0  0  0  0  0  0  0  0
   -3.3517    1.9667   -0.1401 H   0  0  0  0  0  0  0  0  0  0  0  0
   -3.1459    1.5934    1.5648 H   0  0  0  0  0  0  0  0  0  0  0  0
    0.4132    1.6267   -0.2435 H   0  0  0  0  0  0  0  0  0  0  0  0
    2.7783    2.2351   -0.4729 H   0  0  0  0  0  0  0  0  0  0  0  0
    3.9101   -1.8670    0.3759 H   0  0  0  0  0  0  0  0  0  0  0  0
    1.5327   -2.4643    0.6034 H   0  0  0  0  0  0  0  0  0  0  0  0
  1  2  1  0
  2  3  1  0
  2  4  1  0
  4  5  1  0
  5  6  2  0
  5  7  1  0
  7  8  2  0
  8  9  1  0
  9 10  2  0
 10 11  1  0
 11 12  2  0
 10 13  1  0
 13 14  1  0
 13 15  2  0
 12  7  1  0
  1 16  1  0
  1 17  1  0
  1 18  1  0
  2 19  1  0
  3 20  1  0
  3 21  1  0
  3 22  1  0
  8 23  1  0
  9 24  1  0
 11 25  1  0
 12 26  1  0
M  CHG  2  13   1  14  -1
M  END
