
  --CCDC--092525    3D                              

 53 52  0  0  0  0  0  0  0  0999 V2000
    0.0000    0.0000   -0.0000 C      0
    1.9808   -0.0002   -0.7002 Rh     0
    1.9047    2.8108   -0.9168 I      0
    1.0406   -0.2372   -3.3496 I      0
    2.0367   -2.0923   -0.5248 C      0
    2.0682   -3.2280   -0.4289 O      0
    4.3088   -0.0005   -1.5232 P      0
    4.6102   -1.4711   -2.5323 C      0
    3.9901   -1.4169   -3.9187 C      0
    5.4606   -0.0028   -0.1283 C      0
    5.8769   -1.4216    0.2319 C      0
    4.6120    1.4716   -2.5295 C      0
    3.6842    1.6670   -3.7175 C      0
    2.8015    0.2127    1.6202 P      0
    3.7244   -1.2684    2.0997 C      0
    3.0466   -1.9450    3.2811 C      0
    1.5140    0.4343    2.8720 C      0
    0.5788   -0.7325    3.1812 C      0
    3.8549    1.6755    1.7879 C      0
    4.1855    2.6096    0.6305 C      0
   -0.6715    0.2733   -0.8112 H      0
   -0.0982    0.7195    0.8100 H      0
   -0.2561   -0.9929    0.3639 H      0
    4.2560   -2.3613   -1.9978 H      0
    5.6941   -1.5808   -2.6600 H      0
    3.6087   -2.4076   -4.1555 H      0
    4.6974   -1.1774   -4.7027 H      0
    3.1309   -0.7678   -3.9600 H      0
    5.1754    0.5668    0.7406 H      0
    6.3755    0.4790   -0.4936 H      0
    6.7543   -1.6858   -0.3541 H      0
    5.1230   -2.1550   -0.0324 H      0
    6.1551   -1.5213    1.2780 H      0
    5.6446    1.4336   -2.8973 H      0
    4.5395    2.3562   -1.8855 H      0
    3.7147    0.9712   -4.5370 H      0
    3.9735    2.6093   -4.1769 H      0
    2.6650    1.8240   -3.3958 H      0
    4.7399   -0.9883    2.4037 H      0
    3.7686   -1.9905    1.2799 H      0
    3.7357   -2.6744    3.7007 H      0
    2.1744   -2.5144    2.9728 H      0
    2.8071   -1.2557    4.0876 H      0
    2.0139    0.7006    3.8113 H      0
    0.9049    1.3014    2.5885 H      0
    0.6245   -1.4902    2.4017 H      0
   -0.4470   -0.3751    3.2381 H      0
    0.7984   -1.1938    4.1413 H      0
    4.7579    1.4286    2.3621 H      0
    3.2933    2.3176    2.4768 H      0
    3.8040    3.6151    0.8013 H      0
    3.7837    2.1744   -0.2553 H      0
    5.2631    2.6813    0.4998 H      0
  1  2  1
  2  3  1
  2  4  1
  2  5  1
  5  6  3
  2  7  1
  7  8  1
  8  9  1
  7 10  1
 10 11  1
  7 12  1
 12 13  1
  2 14  1
 14 15  1
 15 16  1
 14 17  1
 17 18  1
 14 19  1
 19 20  1
  1 21  1
  1 22  1
  1 23  1
  8 24  1
  8 25  1
  9 26  1
  9 27  1
  9 28  1
 10 29  1
 10 30  1
 11 31  1
 11 32  1
 11 33  1
 12 34  1
 12 35  1
 13 36  1
 13 37  1
 13 38  1
 15 39  1
 15 40  1
 16 41  1
 16 42  1
 16 43  1
 17 44  1
 17 45  1
 18 46  1
 18 47  1
 18 48  1
 19 49  1
 19 50  1
 20 51  1
 20 52  1
 20 53  1
M  END
$$$$
