
  --CCDC--092525    3D                              

 70 72  0  0  0  0  0  0  0  0999 V2000
    0.1977    1.2063   -0.0589 C      0
    1.5300    0.8396   -0.5191 C      0
    2.5672    0.5249   -0.8756 N      0
    4.3218   -0.0074   -1.4789 Co     3
    5.7357   -1.2438   -1.9387 C      0
    7.0670   -1.4246   -2.6423 C      0
    7.4279   -2.6736   -3.1411 C      0
    8.6534   -2.8708   -3.7559 C      0
    9.5340   -1.8228   -3.9008 C      0
    9.1845   -0.5740   -3.4394 C      0
    7.9625   -0.3752   -2.8190 C      0
    4.8566   -1.8501   -1.3583 C      0
    4.4005   -3.1927   -0.8576 C      0
    5.2847   -4.2538   -0.6821 C      0
    4.8282   -5.4865   -0.2452 C      0
    3.4937   -5.6728    0.0409 C      0
    2.6113   -4.6249   -0.1020 C      0
    3.0590   -3.3926   -0.5468 C      0
    5.1653    2.0602   -2.1068 P      0
    5.5981    2.1145   -3.8636 C      0
    6.6401    2.5155   -1.1592 C      0
    3.9714    3.4004   -1.8516 C      0
    4.6750    0.5033    0.7507 P      0
    3.6992   -0.6634    1.7296 C      0
    4.1248    2.1567    1.2343 C      0
    6.4023    0.2566    1.2327 C      0
    3.0687   -0.1346   -3.4158 P      0
    1.8187   -1.4160   -3.1569 C      0
    4.0681   -0.6695   -4.8273 C      0
    2.1774    1.3846   -3.8262 C      0
   -0.1401    2.1190   -0.5452 H      0
    0.1910    1.3727    1.0161 H      0
   -0.5175    0.4176   -0.2840 H      0
    6.7363   -3.5039   -3.0621 H      0
    8.9192   -3.8548   -4.1279 H      0
   10.4954   -1.9789   -4.3790 H      0
    9.8693    0.2586   -3.5618 H      0
    7.7057    0.6138   -2.4674 H      0
    6.3425   -4.1154   -0.8730 H      0
    5.5256   -6.3089   -0.1242 H      0
    3.1389   -6.6404    0.3802 H      0
    1.5616   -4.7658    0.1330 H      0
    2.3552   -2.5748   -0.6608 H      0
    6.4052    1.4296   -4.1035 H      0
    5.9126    3.1166   -4.1474 H      0
    4.7477    1.8436   -4.4833 H      0
    7.1977    1.6443   -0.8295 H      0
    6.3756    3.0806   -0.2699 H      0
    7.3053    3.1320   -1.7602 H      0
    3.8167    3.9853   -2.7518 H      0
    4.3294    4.0782   -1.0794 H      0
    3.0026    3.0275   -1.5371 H      0
    3.9948   -1.6885    1.5164 H      0
    2.6392   -0.5624    1.5060 H      0
    3.8395   -0.4842    2.7935 H      0
    3.0456    2.2482    1.1314 H      0
    4.5888    2.9274    0.6254 H      0
    4.3815    2.3531    2.2732 H      0
    6.8655   -0.5102    0.6153 H      0
    6.4643   -0.0655    2.2700 H      0
    6.9866    1.1661    1.1322 H      0
    1.2021   -1.5391   -4.0448 H      0
    1.1674   -1.1570   -2.3248 H      0
    2.2878   -2.3723   -2.9348 H      0
    5.0336   -1.0425   -4.4919 H      0
    4.2463    0.1403   -5.5283 H      0
    3.5675   -1.4719   -5.3651 H      0
    1.6206    1.2629   -4.7528 H      0
    1.4704    1.6397   -3.0394 H      0
    2.8573    2.2218   -3.9552 H      0
  1  2  1
  2  3  3
  3  4  1
  4  5  1
  5  6  1
  6  7  4
  7  8  4
  8  9  4
  9 10  4
 10 11  4
  6 11  4
  5 12  3
  4 12  1
 12 13  1
 13 14  4
 14 15  4
 15 16  4
 16 17  4
 17 18  4
 13 18  4
  4 19  1
 19 20  1
 19 21  1
 19 22  1
  4 23  1
 23 24  1
 23 25  1
 23 26  1
  4 27  1
 27 28  1
 27 29  1
 27 30  1
  1 31  1
  1 32  1
  1 33  1
  7 34  1
  8 35  1
  9 36  1
 10 37  1
 11 38  1
 14 39  1
 15 40  1
 16 41  1
 17 42  1
 18 43  1
 20 44  1
 20 45  1
 20 46  1
 21 47  1
 21 48  1
 21 49  1
 22 50  1
 22 51  1
 22 52  1
 24 53  1
 24 54  1
 24 55  1
 25 56  1
 25 57  1
 25 58  1
 26 59  1
 26 60  1
 26 61  1
 28 62  1
 28 63  1
 28 64  1
 29 65  1
 29 66  1
 29 67  1
 30 68  1
 30 69  1
 30 70  1
M  CHG  1   4   1
M  END
$$$$
