
  --CCDC--092525    3D                              

 26 29  0  0  0  0  0  0  0  0999 V2000
    1.3501   -2.0348    2.3726 H      0
    0.5200   -1.7326    1.7448 C      0
    0.9364   -1.1455    0.5126 C      0
    2.3700   -1.0160    0.1815 C      0
    2.7716   -0.5169   -0.8663 O      0
    3.3667   -1.5215    1.1778 C      0
    3.1280   -1.1123    2.1560 H      0
    4.3850   -1.2272    0.9286 H      0
    3.3209   -2.6046    1.2377 H      0
   -0.1170   -0.5505   -0.4069 C      0
   -0.2934   -0.5579   -1.4965 H      0
   -0.9239   -0.2873    0.8286 C      0
   -0.9228   -0.8003    1.9189 H      0
   -2.3705   -0.7626    0.9682 C      0
   -2.9547   -0.9334    0.0344 H      0
   -2.1276   -1.9456    1.8886 C      0
   -2.5836   -2.9227    1.6102 H      0
   -0.7356   -2.0321    2.3798 N      0
   -0.6487   -2.4548    3.2995 H      0
   -1.2299   -2.2536    0.0439 Fe     0
   -1.9145   -4.3452    0.1470 C      0
   -2.2687   -5.4272    0.2004 O      0
    0.4494   -3.6299   -0.3428 C      0
    1.3262   -4.3359   -0.5173 O      0
   -1.8460   -2.7953   -1.9972 C      0
   -2.1481   -3.0731   -3.0594 O      0
  1  2  1
  2  3  2
  3  4  1
  4  5  2
  4  6  1
  6  7  1
  6  8  1
  6  9  1
  3 10  1
 10 11  1
 10 12  2
 12 13  1
 12 14  1
 14 15  1
 14 16  2
 16 17  1
 16 18  1
  2 18  1
 18 19  1
 16 20  1
 14 20  1
 12 20  1
 10 20  1
 20 21  1
 21 22  3
 20 23  1
 23 24  3
 20 25  1
 25 26  3
M  END
$$$$
