
 OpenBabel09252516033D

 29 30  0  0  0  0  0  0  0  0999 V2000
    1.0102   -0.0752    0.0651 H   0  0  0  0  0  0  0  0  0  0  0  0
    2.0802   -0.0752    0.0651 C   0  0  0  0  0  0  0  0  0  0  0  0
    2.3545   -0.1256   -0.9679 H   0  0  0  0  0  0  0  0  0  0  0  0
    2.6163    1.1057    0.7667 N   0  0  0  0  0  0  0  0  0  0  0  0
    1.9261    2.3892    0.9597 C   0  0  0  0  0  0  0  0  0  0  0  0
    2.7866    3.7978    1.8954 Au  0  0  0  0  0  0  0  0  0  0  0  0
    3.8659    5.5647    3.0690 Cl  0  0  0  0  0  0  0  0  0  0  0  0
    0.5692    2.5813    0.4278 N   0  0  0  0  0  0  0  0  0  0  0  0
   -0.6256    1.7940    0.7839 C   0  0  0  0  0  0  0  0  0  0  0  0
   -1.2071    2.2241    1.5724 H   0  0  0  0  0  0  0  0  0  0  0  0
   -0.3585    0.8208    1.1394 H   0  0  0  0  0  0  0  0  0  0  0  0
   -1.3499    1.7158   -0.5314 C   0  0  0  0  0  0  0  0  0  0  0  0
   -0.9459    0.9775   -1.1922 H   0  0  0  0  0  0  0  0  0  0  0  0
   -2.3747    1.4421   -0.3906 H   0  0  0  0  0  0  0  0  0  0  0  0
   -1.2287    3.1677   -1.0847 C   0  0  0  0  0  0  0  0  0  0  0  0
   -1.3236    3.2194   -2.1492 H   0  0  0  0  0  0  0  0  0  0  0  0
   -2.0052    3.7924   -0.6953 H   0  0  0  0  0  0  0  0  0  0  0  0
    0.1444    3.6224   -0.5829 C   0  0  0  0  0  0  0  0  0  0  0  0
    0.8500    3.7114   -1.3822 H   0  0  0  0  0  0  0  0  0  0  0  0
    0.0739    4.5851   -0.1212 H   0  0  0  0  0  0  0  0  0  0  0  0
    4.0051    0.7563    1.2514 C   0  0  0  0  0  0  0  0  0  0  0  0
    4.1754    1.0999    2.2503 H   0  0  0  0  0  0  0  0  0  0  0  0
    4.7449    1.2194    0.6324 H   0  0  0  0  0  0  0  0  0  0  0  0
    4.1010   -0.7683    1.1505 C   0  0  0  0  0  0  0  0  0  0  0  0
    4.5255   -1.2197    2.0229 H   0  0  0  0  0  0  0  0  0  0  0  0
    4.7337   -1.0597    0.3383 H   0  0  0  0  0  0  0  0  0  0  0  0
    2.6269   -1.2042    0.8942 C   0  0  0  0  0  0  0  0  0  0  0  0
    2.0740   -1.3724    1.7947 H   0  0  0  0  0  0  0  0  0  0  0  0
    2.5870   -2.1294    0.3582 H   0  0  0  0  0  0  0  0  0  0  0  0
  1  2  1  0  0  0  0
  2  3  1  0  0  0  0
  2  4  1  0  0  0  0
  2 27  1  0  0  0  0
  4  5  1  0  0  0  0
  4 21  1  0  0  0  0
  5  6  2  0  0  0  0
  5  8  1  0  0  0  0
  6  7  1  0  0  0  0
  8  9  1  0  0  0  0
  8 18  1  0  0  0  0
  9 10  1  0  0  0  0
  9 11  1  0  0  0  0
  9 12  1  0  0  0  0
 12 13  1  0  0  0  0
 12 14  1  0  0  0  0
 12 15  1  0  0  0  0
 15 16  1  0  0  0  0
 15 17  1  0  0  0  0
 15 18  1  0  0  0  0
 18 19  1  0  0  0  0
 18 20  1  0  0  0  0
 21 22  1  0  0  0  0
 21 23  1  0  0  0  0
 21 24  1  0  0  0  0
 24 25  1  0  0  0  0
 24 26  1  0  0  0  0
 24 27  1  0  0  0  0
 27 28  1  0  0  0  0
 27 29  1  0  0  0  0
M  END
$$$$
