
  --CCDC--092525    3D                              

 73 75  0  0  0  0  0  0  0  0999 V2000
   -0.7479    0.4137   -0.4451 H      0
   -0.0632    1.2434   -0.3042 C      0
    0.3581    1.9863   -1.3829 C      0
   -0.0010    1.7459   -2.3781 H      0
    1.2342    3.0433   -1.2023 C      0
    1.5264    3.6361   -2.0608 H      0
    1.7271    3.3702    0.0589 C      0
    2.7054    4.5264    0.1837 C      0
    3.2325    5.4139   -0.4565 C      0
    3.3948    6.0393   -1.8095 C      0
    2.7813    5.5097   -2.9416 C      0
    2.1949    4.6013   -2.8666 H      0
    2.9323    6.1196   -4.1759 C      0
    2.4399    5.7023   -5.0481 H      0
    3.7095    7.2498   -4.3029 C      0
    3.8248    7.7254   -5.2712 H      0
    4.3435    7.7712   -3.1968 C      0
    4.9631    8.6563   -3.2960 H      0
    4.1913    7.1707   -1.9583 C      0
    4.6946    7.5899   -1.0934 H      0
    3.7963    5.5989    1.3674 Co     3
    4.8651    7.1213    1.9121 N      0
    5.5463    8.0054    2.1802 C      0
    6.4057    9.1404    2.4871 C      0
    6.4301    9.8416    1.6555 H      0
    7.4240    8.8113    2.6830 H      0
    6.0456    9.6701    3.3666 H      0
    5.9862    4.9722    0.9213 P      0
    5.5339    3.6847   -0.2713 C      0
    5.2312    4.0973   -1.2293 H      0
    4.7358    3.0503    0.1030 H      0
    6.3948    3.0487   -0.4660 H      0
    6.8491    6.1399   -0.1598 C      0
    7.8985    5.8681   -0.2522 H      0
    6.4123    6.1346   -1.1562 H      0
    6.8022    7.1550    0.2241 H      0
    6.8402    5.0830    2.5164 C      0
    6.3585    4.4828    3.2787 H      0
    6.9143    6.0968    2.8912 H      0
    7.8562    4.7081    2.4115 H      0
    2.0860    6.9989    2.0852 P      0
    0.7718    6.4482    0.9686 C      0
    0.5289    5.4022    1.1339 H      0
    1.0385    6.5905   -0.0755 H      0
   -0.1330    7.0245    1.1504 H      0
    2.8011    8.5561    2.6651 C      0
    3.4863    8.4103    3.4955 H      0
    2.0108    9.2196    3.0097 H      0
    3.3218    9.0677    1.8590 H      0
    1.1162    6.6046    3.5606 C      0
    0.5043    7.4585    3.8436 H      0
    1.7371    6.3483    4.4137 H      0
    0.4417    5.7744    3.3645 H      0
    3.7710    4.4028    3.3628 P      0
    2.1542    3.9762    4.0531 C      0
    1.3572    4.1870    3.3431 H      0
    1.9597    4.5256    4.9706 H      0
    2.1167    2.9166    4.2973 H      0
    4.3842    5.8109    4.3234 C      0
    3.7142    6.6592    4.2516 H      0
    5.3640    6.1399    3.9944 H      0
    4.4684    5.5404    5.3738 H      0
    4.3630    2.8280    2.6900 C      0
    3.8404    2.5542    1.7795 H      0
    4.1981    2.0360    3.4176 H      0
    5.4236    2.8326    2.4811 H      0
    1.2677    2.6189    1.1391 C      0
    1.5942    2.8461    2.1426 H      0
    0.3870    1.5655    0.9556 C      0
    0.0501    0.9899    1.8114 H      0
    6.5751    3.7296    1.1756 H      0
    1.7304    8.0127    1.1876 H      0
    4.8562    4.0088    4.1521 H      0
  1  2  1
  2  3  4
  3  4  1
  3  5  4
  5  6  1
  5  7  4
  7  8  1
  8  9  3
  9 10  1
 10 11  4
 11 12  1
 11 13  4
 13 14  1
 13 15  4
 15 16  1
 15 17  4
 17 18  1
 17 19  4
 10 19  4
 19 20  1
  9 21  1
  8 21  1
 21 22  1
 22 23  3
 23 24  1
 24 25  1
 24 26  1
 24 27  1
 21 28  1
 28 29  1
 29 30  1
 29 31  1
 29 32  1
 28 33  1
 33 34  1
 33 35  1
 33 36  1
 28 37  1
 37 38  1
 37 39  1
 37 40  1
 21 41  1
 41 42  1
 42 43  1
 42 44  1
 42 45  1
 41 46  1
 46 47  1
 46 48  1
 46 49  1
 41 50  1
 50 51  1
 50 52  1
 50 53  1
 21 54  1
 54 55  1
 55 56  1
 55 57  1
 55 58  1
 54 59  1
 59 60  1
 59 61  1
 59 62  1
 54 63  1
 63 64  1
 63 65  1
 63 66  1
  7 67  4
 67 68  1
 67 69  4
  2 69  4
 69 70  1
 28 71  1
 41 72  1
 54 73  1
M  CHG  1  21   1
M  END
$$$$
