
 OpenBabel09252514393D

 19 24  0  0  0  0  0  0  0  0999 V2000
   -1.8100    0.0280    0.7660 H   0  0  0  0  0  0  0  0  0  0  0  0
   -1.8100    0.0280   -0.7660 Si  0  0  0  0  0  0  0  0  0  0  0  0
    0.1654    0.7793   -1.0312 Cl  0  0  0  0  0  0  0  0  0  0  0  0
   -2.6567    1.2709   -2.2744 Cl  0  0  0  0  0  0  0  0  0  0  0  0
   -2.4520   -1.7006   -1.8321 Cl  0  0  0  0  0  0  0  0  0  0  0  0
   -0.4940    0.0060   -0.0000 Mn  0  0  0  0  0  0  0  0  0  0  0  0
    0.3218    0.4617   -1.9363 C   0  0  0  0  0  0  0  0  0  0  0  0
    0.7840    0.7199   -3.0333 O   0  0  0  0  0  0  0  0  0  0  0  0
   -0.1806    0.2520    2.1128 C   0  0  0  0  0  0  0  0  0  0  0  0
   -0.0030    0.3913    3.3097 O   0  0  0  0  0  0  0  0  0  0  0  0
    1.6080   -0.7310    0.0000 C   0  0  0  0  0  0  0  0  0  0  0  0
    1.6820    0.6470    0.0000 C   0  0  0  0  0  3  0  0  0  0  0  0
    0.4430    1.1890   -0.0000 C   0  0  0  0  0  0  0  0  0  0  0  0
   -0.0566   -2.6220    0.0000 C   0  0  0  0  0  0  0  0  0  0  0  0
    0.9836   -3.7303    0.0000 C   0  0  0  0  0  0  0  0  0  0  0  0
    0.3830   -1.1670   -0.0000 C   0  0  0  0  0  0  0  0  0  0  0  0
    1.5955   -3.6451   -0.8736 H   0  0  0  0  0  0  0  0  0  0  0  0
    1.5955   -3.6451    0.8737 H   0  0  0  0  0  0  0  0  0  0  0  0
    0.4922   -4.6808    0.0000 H   0  0  0  0  0  0  0  0  0  0  0  0
  1  2  1  0  0  0  0
  1  6  1  0  0  0  0
  2  3  1  0  0  0  0
  2  4  1  0  0  0  0
  2  5  1  0  0  0  0
  2  6  1  0  0  0  0
  6  7  1  0  0  0  0
  6  9  1  0  0  0  0
  6 11  1  0  0  0  0
  6 12  1  0  0  0  0
  6 13  1  0  0  0  0
  6 14  1  0  0  0  0
  6 16  1  0  0  0  0
  7  8  3  0  0  0  0
  9 10  3  0  0  0  0
 11 12  1  0  0  0  0
 11 16  2  0  0  0  0
 12 13  1  0  0  0  0
 13 14  2  0  0  0  0
 14 15  1  0  0  0  0
 14 16  1  0  0  0  0
 15 17  1  0  0  0  0
 15 18  1  0  0  0  0
 15 19  1  0  0  0  0
M  END
$$$$
