
 OpenBabel09252518023D

 28 28  0  0  0  0  0  0  0  0999 V2000
    1.1184    0.4658   -0.0102 H   0  0  0  0  0  0  0  0  0  0  0  0
    2.2012    0.3456    0.0872 C   0  0  0  0  0  0  0  0  0  0  0  0
    2.9282    1.5636    0.4616 C   0  0  0  0  0  0  0  0  0  0  0  0
    2.4474    2.3217    1.4836 C   0  0  0  0  0  0  0  0  0  0  0  0
    1.3143    1.8969    2.2512 C   0  0  0  0  0  0  0  0  0  0  0  0
    0.3952    1.5365    2.8618 N   0  0  0  0  0  0  0  0  0  0  0  0
    3.0124    3.5615    1.8899 C   0  0  0  0  0  0  0  0  0  0  0  0
    3.4488    4.5816    2.2330 N   0  0  0  0  0  0  0  0  0  0  0  0
    4.1162    1.8247   -0.4616 C   0  0  0  0  0  0  0  0  0  0  0  0
    4.8393    1.0084   -0.3376 H   0  0  0  0  0  0  0  0  0  0  0  0
    3.7517    1.7616   -1.4972 H   0  0  0  0  0  0  0  0  0  0  0  0
    4.9004    3.1252   -0.3621 C   0  0  0  0  0  0  0  0  0  0  0  0
    4.2596    3.9960   -0.5302 H   0  0  0  0  0  0  0  0  0  0  0  0
    5.4024    3.2151    0.6057 H   0  0  0  0  0  0  0  0  0  0  0  0
    5.6803    3.1448   -1.1311 H   0  0  0  0  0  0  0  0  0  0  0  0
    2.7125   -0.8820   -0.1113 C   0  0  0  0  0  0  0  0  0  0  0  0
    3.7680   -1.1147   -0.0179 H   0  0  0  0  0  0  0  0  0  0  0  0
    1.8091   -1.9852   -0.4398 C   0  0  0  0  0  3  0  0  0  0  0  0
    0.7705   -2.3739    0.5508 C   0  0  0  0  0  3  0  0  0  0  0  0
    1.0267   -2.3303    1.6052 H   0  0  0  0  0  0  0  0  0  0  0  0
   -0.6389   -2.2364    0.1823 C   0  0  0  0  0  3  0  0  0  0  0  0
   -1.3595   -1.9529    0.9400 H   0  0  0  0  0  0  0  0  0  0  0  0
   -0.9954   -2.0812   -1.2165 C   0  0  0  0  0  3  0  0  0  0  0  0
   -2.2521   -1.7204   -1.5354 F   0  0  0  0  0  0  0  0  0  0  0  0
    0.0301   -2.0328   -2.2397 C   0  0  0  0  0  3  0  0  0  0  0  0
   -0.2290   -1.7639   -3.2545 H   0  0  0  0  0  0  0  0  0  0  0  0
    1.4244   -2.1942   -1.8517 C   0  0  0  0  0  3  0  0  0  0  0  0
    2.0993   -2.7354   -2.5049 H   0  0  0  0  0  0  0  0  0  0  0  0
  1  2  1  0  0  0  0
  2  3  1  0  0  0  0
  2 16  2  0  0  0  0
  3  4  2  0  0  0  0
  3  9  1  0  0  0  0
  4  5  1  0  0  0  0
  4  7  1  0  0  0  0
  5  6  3  0  0  0  0
  7  8  3  0  0  0  0
  9 10  1  0  0  0  0
  9 11  1  0  0  0  0
  9 12  1  0  0  0  0
 12 13  1  0  0  0  0
 12 14  1  0  0  0  0
 12 15  1  0  0  0  0
 16 17  1  0  0  0  0
 16 18  1  0  0  0  0
 18 19  1  0  0  0  0
 18 27  1  0  0  0  0
 19 20  1  0  0  0  0
 19 21  1  0  0  0  0
 21 22  1  0  0  0  0
 21 23  1  0  0  0  0
 23 24  1  0  0  0  0
 23 25  1  0  0  0  0
 25 26  1  0  0  0  0
 25 27  1  0  0  0  0
 27 28  1  0  0  0  0
M  END
$$$$
