
 OpenBabel09252515523D

114121  0  0  0  0  0  0  0  0999 V2000
    1.0563   -0.0800    0.0208 C   0  0  0  0  0  0  0  0  0  0  0  0
    0.5829   -1.3835   -0.2849 O   0  0  0  0  0  0  0  0  0  0  0  0
    0.5504   -2.2152    0.7707 C   0  0  0  0  0  0  0  0  0  0  0  0
    0.4337   -3.5963    0.3116 C   0  0  0  0  0  0  0  0  0  0  0  0
    1.1458   -3.6099   -1.0620 O   0  0  0  0  0  0  0  0  0  0  0  0
    0.5086   -4.5010   -1.9656 C   0  0  0  0  0  0  0  0  0  0  0  0
    0.9891   -2.1496   -1.5130 Eu  0  0  0  0  0  0  0  0  0  0  0  0
    3.3142   -2.0289   -0.1657 N   0  0  0  0  0  0  0  0  0  0  0  0
    4.3596   -2.7019   -0.5961 C   0  0  0  0  0  0  0  0  0  0  0  0
    5.6467   -3.5305   -1.1260 S   0  0  0  0  0  0  0  0  0  0  0  0
    2.3608   -1.1661    0.5816 N   0  0  0  0  0  0  0  0  0  0  0  0
    1.6540   -0.4445    1.6496 C   0  0  0  0  0  0  0  0  0  0  0  0
    0.7090   -1.0362    2.3483 C   0  0  0  0  0  0  0  0  0  0  0  0
    0.1740   -0.3613    3.4401 C   0  0  0  0  0  0  0  0  0  0  0  0
    0.9844    0.6381    4.0236 C   0  0  0  0  0  0  0  0  0  0  0  0
    1.7826    1.3741    3.1497 C   0  0  0  0  0  0  0  0  0  0  0  0
    2.1021    0.8361    1.9917 C   0  0  0  0  0  0  0  0  0  0  0  0
    2.9678    1.6150    1.0148 C   0  0  0  0  0  0  0  0  0  0  0  0
    2.2697    2.9129    0.6427 C   0  0  0  0  0  0  0  0  0  0  0  0
    4.3069    1.9276    1.6625 C   0  0  0  0  0  0  0  0  0  0  0  0
    0.2142   -2.4231    1.9713 C   0  0  0  0  0  0  0  0  0  0  0  0
    0.4506   -3.3777    3.1303 C   0  0  0  0  0  0  0  0  0  0  0  0
   -1.2722   -2.3633    1.6592 C   0  0  0  0  0  0  0  0  0  0  0  0
    3.8172   -1.3502    0.6582 C   0  0  0  0  0  0  0  0  0  0  0  0
    4.4801   -1.9821    1.6215 C   0  0  0  0  0  0  0  0  0  0  0  0
   -0.7117   -3.6819   -2.9256 N   0  0  0  0  0  0  0  0  0  0  0  0
   -1.9548   -3.1037   -3.4558 C   0  0  0  0  0  0  0  0  0  0  0  0
   -1.9127   -2.0945   -4.2990 C   0  0  0  0  0  0  0  0  0  0  0  0
   -3.1143   -1.5766   -4.7701 C   0  0  0  0  0  0  0  0  0  0  0  0
   -4.2315   -2.4407   -4.7341 C   0  0  0  0  0  0  0  0  0  0  0  0
   -4.2974   -3.3202   -3.6549 C   0  0  0  0  0  0  0  0  0  0  0  0
   -3.1792   -3.6357   -3.0365 C   0  0  0  0  0  0  0  0  0  0  0  0
   -3.2182   -4.5891   -1.8533 C   0  0  0  0  0  0  0  0  0  0  0  0
   -4.0962   -4.0034   -0.7595 C   0  0  0  0  0  0  0  0  0  0  0  0
   -3.7877   -5.9262   -2.2986 C   0  0  0  0  0  0  0  0  0  0  0  0
   -0.5834   -1.5091   -4.7472 C   0  0  0  0  0  0  0  0  0  0  0  0
   -0.4576   -1.6349   -6.2568 C   0  0  0  0  0  0  0  0  0  0  0  0
   -0.5173   -0.0424   -4.3538 C   0  0  0  0  0  0  0  0  0  0  0  0
    5.9217   -1.9517    1.3465 C   0  0  0  0  0  0  0  0  0  0  0  0
    7.1463   -2.4511    2.0000 C   0  0  0  0  0  0  0  0  0  0  0  0
    8.3189   -2.2225    1.4343 C   0  0  0  0  0  0  0  0  0  0  0  0
    8.4510   -1.4796    0.1616 C   0  0  0  0  0  0  0  0  0  0  0  0
    7.3621   -1.0358   -0.4191 C   0  0  0  0  0  0  0  0  0  0  0  0
    7.2967   -0.2807   -1.6821 C   0  0  0  0  0  0  0  0  0  0  0  0
    6.1108    0.0926   -2.1270 C   0  0  0  0  0  0  0  0  0  0  0  0
    4.8408   -0.1971   -1.4412 C   0  0  0  0  0  0  0  0  0  0  0  0
    4.8074   -0.8687   -0.3176 C   0  0  0  0  0  0  0  0  0  0  0  0
    6.0884   -1.3082    0.2361 C   0  0  0  0  0  0  0  0  0  0  0  0
    2.2643   -1.6203   -2.1076 O   0  0  0  0  0  0  0  0  0  0  0  0
    3.2701   -2.6203   -2.0382 C   0  0  0  0  0  0  0  0  0  0  0  0
    2.0530   -1.2853   -3.3921 C   0  0  0  0  0  0  0  0  0  0  0  0
    0.6264   -1.0821   -3.6243 C   0  0  0  0  0  0  0  0  0  0  0  0
   -0.0717   -2.0326   -2.6225 O   0  0  0  0  0  0  0  0  0  0  0  0
   -1.2777   -1.4688   -2.1284 C   0  0  0  0  0  0  0  0  0  0  0  0
    0.6996    0.2116    0.9865 H   0  0  0  0  0  0  0  0  0  0  0  0
    0.6996    0.6105   -0.7147 H   0  0  0  0  0  0  0  0  0  0  0  0
    2.1263   -0.0800    0.0208 H   0  0  0  0  0  0  0  0  0  0  0  0
   -0.2938   -1.9749    1.3826 H   0  0  0  0  0  0  0  0  0  0  0  0
    1.4511   -2.1046    1.3375 H   0  0  0  0  0  0  0  0  0  0  0  0
    0.8658   -4.2918    1.0005 H   0  0  0  0  0  0  0  0  0  0  0  0
   -0.5942   -3.8747    0.2074 H   0  0  0  0  0  0  0  0  0  0  0  0
   -0.5351   -4.2711   -2.0169 H   0  0  0  0  0  0  0  0  0  0  0  0
    0.9450   -4.3964   -2.9370 H   0  0  0  0  0  0  0  0  0  0  0  0
    0.6359   -5.5069   -1.6238 H   0  0  0  0  0  0  0  0  0  0  0  0
   -0.8010   -0.5871    3.8187 H   0  0  0  0  0  0  0  0  0  0  0  0
    0.9853    0.8199    5.0781 H   0  0  0  0  0  0  0  0  0  0  0  0
    2.1271    2.3521    3.4136 H   0  0  0  0  0  0  0  0  0  0  0  0
    3.1259    1.0295    0.1333 H   0  0  0  0  0  0  0  0  0  0  0  0
    2.1116    3.4983    1.5242 H   0  0  0  0  0  0  0  0  0  0  0  0
    2.8792    3.4611   -0.0450 H   0  0  0  0  0  0  0  0  0  0  0  0
    1.3271    2.6928    0.1868 H   0  0  0  0  0  0  0  0  0  0  0  0
    4.7983    1.0139    1.9245 H   0  0  0  0  0  0  0  0  0  0  0  0
    4.9164    2.4758    0.9748 H   0  0  0  0  0  0  0  0  0  0  0  0
    4.1488    2.5130    2.5440 H   0  0  0  0  0  0  0  0  0  0  0  0
    0.7460   -2.7695    1.1098 H   0  0  0  0  0  0  0  0  0  0  0  0
   -0.0811   -3.0313    3.9918 H   0  0  0  0  0  0  0  0  0  0  0  0
    0.1023   -4.3540    2.8649 H   0  0  0  0  0  0  0  0  0  0  0  0
    1.4969   -3.4198    3.3500 H   0  0  0  0  0  0  0  0  0  0  0  0
   -1.4386   -1.6913    0.8433 H   0  0  0  0  0  0  0  0  0  0  0  0
   -1.6204   -3.3396    1.3938 H   0  0  0  0  0  0  0  0  0  0  0  0
   -1.8039   -2.0169    2.5207 H   0  0  0  0  0  0  0  0  0  0  0  0
   -3.1889   -0.5756   -5.1406 H   0  0  0  0  0  0  0  0  0  0  0  0
   -4.9852   -2.4210   -5.4933 H   0  0  0  0  0  0  0  0  0  0  0  0
   -5.2339   -3.7287   -3.3369 H   0  0  0  0  0  0  0  0  0  0  0  0
   -2.2267   -4.7312   -1.4770 H   0  0  0  0  0  0  0  0  0  0  0  0
   -5.0877   -3.8612   -1.1358 H   0  0  0  0  0  0  0  0  0  0  0  0
   -4.1237   -4.6745    0.0734 H   0  0  0  0  0  0  0  0  0  0  0  0
   -3.6953   -3.0621   -0.4461 H   0  0  0  0  0  0  0  0  0  0  0  0
   -3.1696   -6.3385   -3.0686 H   0  0  0  0  0  0  0  0  0  0  0  0
   -3.8152   -6.5973   -1.4657 H   0  0  0  0  0  0  0  0  0  0  0  0
   -4.7792   -5.7840   -2.6749 H   0  0  0  0  0  0  0  0  0  0  0  0
    0.2172   -2.0409   -4.2770 H   0  0  0  0  0  0  0  0  0  0  0  0
   -1.2582   -1.1030   -6.7270 H   0  0  0  0  0  0  0  0  0  0  0  0
    0.4781   -1.2228   -6.5723 H   0  0  0  0  0  0  0  0  0  0  0  0
   -0.5042   -2.6674   -6.5337 H   0  0  0  0  0  0  0  0  0  0  0  0
   -0.6059    0.0462   -3.2911 H   0  0  0  0  0  0  0  0  0  0  0  0
    0.4184    0.3697   -4.6693 H   0  0  0  0  0  0  0  0  0  0  0  0
   -1.3179    0.4895   -4.8240 H   0  0  0  0  0  0  0  0  0  0  0  0
    7.0861   -2.9921    2.9212 H   0  0  0  0  0  0  0  0  0  0  0  0
    9.2033   -2.5874    1.9134 H   0  0  0  0  0  0  0  0  0  0  0  0
    9.4128   -1.3084   -0.2750 H   0  0  0  0  0  0  0  0  0  0  0  0
    8.1871   -0.0408   -2.2249 H   0  0  0  0  0  0  0  0  0  0  0  0
    6.0704    0.6409   -3.0449 H   0  0  0  0  0  0  0  0  0  0  0  0
    3.9239    0.1490   -1.8708 H   0  0  0  0  0  0  0  0  0  0  0  0
    2.9527   -3.4839   -2.5843 H   0  0  0  0  0  0  0  0  0  0  0  0
    4.1774   -2.2436   -2.4623 H   0  0  0  0  0  0  0  0  0  0  0  0
    3.4381   -2.8867   -1.0156 H   0  0  0  0  0  0  0  0  0  0  0  0
    2.4039   -2.0742   -4.0242 H   0  0  0  0  0  0  0  0  0  0  0  0
    2.5810   -0.3816   -3.6146 H   0  0  0  0  0  0  0  0  0  0  0  0
    0.3474   -1.2843   -4.6373 H   0  0  0  0  0  0  0  0  0  0  0  0
    0.3537   -0.0652   -3.4330 H   0  0  0  0  0  0  0  0  0  0  0  0
   -1.0623   -0.5475   -1.6288 H   0  0  0  0  0  0  0  0  0  0  0  0
   -1.9457   -1.2847   -2.9438 H   0  0  0  0  0  0  0  0  0  0  0  0
   -1.7339   -2.1495   -1.4404 H   0  0  0  0  0  0  0  0  0  0  0  0
  1  2  1  0  0  0  0
  1 55  1  0  0  0  0
  1 56  1  0  0  0  0
  1 57  1  0  0  0  0
  2  3  1  0  0  0  0
  2  7  1  0  0  0  0
  3  4  1  0  0  0  0
  3 58  1  0  0  0  0
  3 59  1  0  0  0  0
  4  5  1  0  0  0  0
  4 60  1  0  0  0  0
  4 61  1  0  0  0  0
  5  6  1  0  0  0  0
  5  7  1  0  0  0  0
  6 62  1  0  0  0  0
  6 63  1  0  0  0  0
  6 64  1  0  0  0  0
  7  8  1  0  0  0  0
  7 11  1  0  0  0  0
  7 26  1  0  0  0  0
  7 49  1  0  0  0  0
  7 53  1  0  0  0  0
  8  9  2  0  0  0  0
  9 10  2  0  0  0  0
 11 12  1  0  0  0  0
 11 24  1  0  0  0  0
 12 13  1  0  0  0  0
 12 17  2  0  0  0  0
 13 14  2  0  0  0  0
 13 21  1  0  0  0  0
 14 15  1  0  0  0  0
 14 65  1  0  0  0  0
 15 16  2  0  0  0  0
 15 66  1  0  0  0  0
 16 17  1  0  0  0  0
 16 67  1  0  0  0  0
 17 18  1  0  0  0  0
 18 19  1  0  0  0  0
 18 20  1  0  0  0  0
 18 68  1  0  0  0  0
 19 69  1  0  0  0  0
 19 70  1  0  0  0  0
 19 71  1  0  0  0  0
 20 72  1  0  0  0  0
 20 73  1  0  0  0  0
 20 74  1  0  0  0  0
 21 22  1  0  0  0  0
 21 23  1  0  0  0  0
 21 75  1  0  0  0  0
 22 76  1  0  0  0  0
 22 77  1  0  0  0  0
 22 78  1  0  0  0  0
 23 79  1  0  0  0  0
 23 80  1  0  0  0  0
 23 81  1  0  0  0  0
 24 25  2  0  0  0  0
 24 47  1  0  0  0  0
 25 26  1  0  0  0  0
 25 39  1  0  0  0  0
 26 27  1  0  0  0  0
 27 28  1  0  0  0  0
 27 32  2  0  0  0  0
 28 29  2  0  0  0  0
 28 36  1  0  0  0  0
 29 30  1  0  0  0  0
 29 82  1  0  0  0  0
 30 31  2  0  0  0  0
 30 83  1  0  0  0  0
 31 32  1  0  0  0  0
 31 84  1  0  0  0  0
 32 33  1  0  0  0  0
 33 34  1  0  0  0  0
 33 35  1  0  0  0  0
 33 85  1  0  0  0  0
 34 86  1  0  0  0  0
 34 87  1  0  0  0  0
 34 88  1  0  0  0  0
 35 89  1  0  0  0  0
 35 90  1  0  0  0  0
 35 91  1  0  0  0  0
 36 37  1  0  0  0  0
 36 38  1  0  0  0  0
 36 92  1  0  0  0  0
 37 93  1  0  0  0  0
 37 94  1  0  0  0  0
 37 95  1  0  0  0  0
 38 96  1  0  0  0  0
 38 97  1  0  0  0  0
 38 98  1  0  0  0  0
 39 40  1  0  0  0  0
 39 48  2  0  0  0  0
 40 41  2  0  0  0  0
 40 99  1  0  0  0  0
 41 42  1  0  0  0  0
 41100  1  0  0  0  0
 42 43  2  0  0  0  0
 42101  1  0  0  0  0
 43 44  1  0  0  0  0
 43 48  1  0  0  0  0
 44 45  2  0  0  0  0
 44102  1  0  0  0  0
 45 46  1  0  0  0  0
 45103  1  0  0  0  0
 46 47  2  0  0  0  0
 46104  1  0  0  0  0
 47 48  1  0  0  0  0
 49 50  1  0  0  0  0
 49 51  1  0  0  0  0
 50105  1  0  0  0  0
 50106  1  0  0  0  0
 50107  1  0  0  0  0
 51 52  1  0  0  0  0
 51108  1  0  0  0  0
 51109  1  0  0  0  0
 52 53  1  0  0  0  0
 52110  1  0  0  0  0
 52111  1  0  0  0  0
 53 54  1  0  0  0  0
 54112  1  0  0  0  0
 54113  1  0  0  0  0
 54114  1  0  0  0  0
M  END
$$$$
