
     RDKit          3D

  0  0  0  0  0  0  0  0  0  0999 V3000
M  V30 BEGIN CTAB
M  V30 COUNTS 114 121 0 0 0
M  V30 BEGIN ATOM
M  V30 1 C 1.379973 -4.091692 -0.128286 0
M  V30 2 O 1.396644 -2.762445 0.218949 0
M  V30 3 C 2.590301 -2.975104 1.028883 0
M  V30 4 C 2.924238 -1.744124 1.707181 0
M  V30 5 O 1.536134 -1.550135 1.999794 0
M  V30 6 C 1.661721 -0.616516 2.976385 0
M  V30 7 Eu -0.065926 -1.574231 0.751780 0 VAL=7
M  V30 8 N -1.004351 -2.555900 -0.703276 0
M  V30 9 C -1.800772 -3.458571 -0.769162 0
M  V30 10 S -2.412041 -4.952017 -0.842980 0
M  V30 11 N -1.084652 0.137977 0.156884 0
M  V30 12 C -2.245533 0.535583 -0.677320 0
M  V30 13 C -3.477722 0.591834 -0.022664 0
M  V30 14 C -4.585664 0.812170 -0.881629 0
M  V30 15 C -4.540043 0.975632 -2.250054 0
M  V30 16 C -3.287523 0.913582 -2.810193 0
M  V30 17 C -2.171787 0.694307 -2.036210 0
M  V30 18 C -1.078099 0.398770 -2.995013 0
M  V30 19 C -1.235715 1.376798 -4.181958 0
M  V30 20 C -1.528946 -0.930735 -3.713992 0
M  V30 21 C -4.059323 0.701868 1.292268 0
M  V30 22 C -5.338086 -0.197801 1.325186 0
M  V30 23 C -4.806681 2.086537 1.369864 0
M  V30 24 C -0.456376 1.253667 0.926904 0
M  V30 25 C 0.879137 1.108895 0.821611 0
M  V30 26 N 1.105129 -0.083872 -0.057281 0
M  V30 27 C 2.027595 0.143080 -1.123164 0
M  V30 28 C 2.566970 -0.720435 -2.112546 0
M  V30 29 C 3.613502 -0.657122 -2.965296 0
M  V30 30 C 4.304512 0.521615 -2.857143 0
M  V30 31 C 3.883658 1.508135 -1.944941 0
M  V30 32 C 2.805870 1.244099 -1.191621 0
M  V30 33 C 2.169160 2.544010 -0.987227 0
M  V30 34 C 3.281719 3.557460 -0.803941 0
M  V30 35 C 1.699065 3.144300 -2.407996 0
M  V30 36 C 1.704101 -1.827482 -2.617130 0
M  V30 37 C 1.534069 -1.655902 -4.184131 0
M  V30 38 C 2.734296 -3.028282 -2.806495 0
M  V30 39 C 1.592249 2.191510 1.644971 0
M  V30 40 C 2.906840 2.480476 1.953914 0
M  V30 41 C 3.168258 3.526288 2.787913 0
M  V30 42 C 2.181475 4.315300 3.342661 0
M  V30 43 C 0.889348 3.987391 3.011698 0
M  V30 44 C -0.231863 4.640709 3.498456 0
M  V30 45 C -1.504472 4.207388 3.139601 0
M  V30 46 C -1.602555 3.136651 2.314668 0
M  V30 47 C -0.556855 2.459812 1.807444 0
M  V30 48 C 0.640947 2.944409 2.185115 0
M  V30 49 O -1.568275 -1.287419 2.094137 0
M  V30 50 C -2.733152 -2.062805 1.835430 0
M  V30 51 C -1.313624 -1.162392 3.492040 0
M  V30 52 C -0.969742 -2.597367 3.570476 0
M  V30 53 O -0.273724 -2.774755 2.289325 0
M  V30 54 C -0.268474 -4.110620 2.249963 0
M  V30 55 H 0.635481 -4.500597 -0.749992 0
M  V30 56 H 2.396390 -4.275671 -0.589140 0
M  V30 57 H 1.520719 -4.787496 0.756098 0
M  V30 58 H 3.353984 -3.257814 0.263094 0
M  V30 59 H 2.434868 -3.771313 1.748020 0
M  V30 60 H 3.302789 -1.865482 2.734330 0
M  V30 61 H 3.271481 -0.870669 1.158540 0
M  V30 62 H 2.566838 0.013879 2.652830 0
M  V30 63 H 0.897534 0.133962 3.100162 0
M  V30 64 H 1.877890 -1.103685 3.931270 0
M  V30 65 H -5.656182 0.878988 -0.601654 0
M  V30 66 H -5.422210 1.138936 -2.863373 0
M  V30 67 H -3.354961 1.069538 -3.895017 0
M  V30 68 H -0.088924 0.419954 -2.704882 0
M  V30 69 H -1.720648 2.316625 -3.862262 0
M  V30 70 H -0.224208 1.667921 -4.576838 0
M  V30 71 H -1.846192 0.943928 -4.994902 0
M  V30 72 H -1.121515 -1.792979 -3.196934 0
M  V30 73 H -2.640080 -1.007436 -3.650479 0
M  V30 74 H -1.298833 -0.887361 -4.781919 0
M  V30 75 H -3.539899 0.522156 2.187308 0
M  V30 76 H -5.222398 -1.044187 0.646701 0
M  V30 77 H -6.245813 0.332362 1.118030 0
M  V30 78 H -5.469422 -0.656885 2.335843 0
M  V30 79 H -4.263580 2.793034 0.723399 0
M  V30 80 H -4.746924 2.386405 2.413870 0
M  V30 81 H -5.830083 1.957275 1.045953 0
M  V30 82 H 3.988598 -1.345777 -3.668338 0
M  V30 83 H 5.175508 0.639878 -3.480976 0
M  V30 84 H 4.542868 2.337800 -1.996469 0
M  V30 85 H 1.422227 2.890618 -0.416975 0
M  V30 86 H 2.956574 4.437497 -0.166146 0
M  V30 87 H 4.204671 3.184382 -0.312836 0
M  V30 88 H 3.633479 3.939343 -1.782736 0
M  V30 89 H 0.916347 2.534976 -2.790321 0
M  V30 90 H 1.540746 4.207702 -2.230272 0
M  V30 91 H 2.548457 3.086564 -3.114469 0
M  V30 92 H 0.928801 -2.246408 -2.163780 0
M  V30 93 H 1.218726 -0.628520 -4.408594 0
M  V30 94 H 0.813987 -2.441116 -4.447349 0
M  V30 95 H 2.452274 -1.810566 -4.735583 0
M  V30 96 H 3.532371 -2.956759 -2.094464 0
M  V30 97 H 3.145867 -3.011274 -3.843455 0
M  V30 98 H 2.160485 -3.954021 -2.706604 0
M  V30 99 H 3.641769 1.832729 1.509709 0
M  V30 100 H 4.205385 3.728251 3.008355 0
M  V30 101 H 2.356378 5.152311 4.002032 0
M  V30 102 H -0.098663 5.480126 4.151250 0
M  V30 103 H -2.415813 4.692023 3.491025 0
M  V30 104 H -2.527445 2.785076 2.054279 0
M  V30 105 H -2.997225 -1.986472 0.739393 0
M  V30 106 H -3.437809 -1.808962 2.567802 0
M  V30 107 H -2.517383 -3.145613 1.920856 0
M  V30 108 H -0.742812 -0.404206 3.872708 0
M  V30 109 H -2.409151 -1.009842 3.803226 0
M  V30 110 H -1.821673 -3.208175 3.560937 0
M  V30 111 H -0.216382 -2.829559 4.361012 0
M  V30 112 H -0.066723 -4.773836 1.483327 0
M  V30 113 H -1.226692 -4.487492 2.703560 0
M  V30 114 H 0.551218 -4.396599 3.059990 0
M  V30 END ATOM
M  V30 BEGIN BOND
M  V30 1 1 1 2
M  V30 2 1 2 3
M  V30 3 1 3 4
M  V30 4 1 4 5
M  V30 5 1 5 6
M  V30 6 9 5 7
M  V30 7 1 7 8
M  V30 8 2 8 9
M  V30 9 2 9 10
M  V30 10 1 7 11
M  V30 11 1 11 12
M  V30 12 2 12 13
M  V30 13 1 13 14
M  V30 14 2 14 15
M  V30 15 1 15 16
M  V30 16 2 16 17
M  V30 17 1 17 18
M  V30 18 1 18 19
M  V30 19 1 18 20
M  V30 20 1 13 21
M  V30 21 1 21 22
M  V30 22 1 21 23
M  V30 23 1 11 24
M  V30 24 2 24 25
M  V30 25 1 25 26
M  V30 26 1 26 27
M  V30 27 2 27 28
M  V30 28 1 28 29
M  V30 29 2 29 30
M  V30 30 1 30 31
M  V30 31 2 31 32
M  V30 32 1 32 33
M  V30 33 1 33 34
M  V30 34 1 33 35
M  V30 35 1 28 36
M  V30 36 1 36 37
M  V30 37 1 36 38
M  V30 38 1 25 39
M  V30 39 2 39 40
M  V30 40 1 40 41
M  V30 41 2 41 42
M  V30 42 1 42 43
M  V30 43 2 43 44
M  V30 44 1 44 45
M  V30 45 2 45 46
M  V30 46 1 46 47
M  V30 47 2 47 48
M  V30 48 9 49 7
M  V30 49 1 49 50
M  V30 50 1 49 51
M  V30 51 1 51 52
M  V30 52 1 52 53
M  V30 53 1 53 54
M  V30 54 9 2 7
M  V30 55 1 17 12
M  V30 56 1 47 24
M  V30 57 1 26 7
M  V30 58 1 32 27
M  V30 59 1 48 39
M  V30 60 9 53 7
M  V30 61 1 48 43
M  V30 62 1 1 55
M  V30 63 1 1 56
M  V30 64 1 1 57
M  V30 65 1 3 58
M  V30 66 1 3 59
M  V30 67 1 4 60
M  V30 68 1 4 61
M  V30 69 1 6 62
M  V30 70 1 6 63
M  V30 71 1 6 64
M  V30 72 1 14 65
M  V30 73 1 15 66
M  V30 74 1 16 67
M  V30 75 1 18 68
M  V30 76 1 19 69
M  V30 77 1 19 70
M  V30 78 1 19 71
M  V30 79 1 20 72
M  V30 80 1 20 73
M  V30 81 1 20 74
M  V30 82 1 21 75
M  V30 83 1 22 76
M  V30 84 1 22 77
M  V30 85 1 22 78
M  V30 86 1 23 79
M  V30 87 1 23 80
M  V30 88 1 23 81
M  V30 89 1 29 82
M  V30 90 1 30 83
M  V30 91 1 31 84
M  V30 92 1 33 85
M  V30 93 1 34 86
M  V30 94 1 34 87
M  V30 95 1 34 88
M  V30 96 1 35 89
M  V30 97 1 35 90
M  V30 98 1 35 91
M  V30 99 1 36 92
M  V30 100 1 37 93
M  V30 101 1 37 94
M  V30 102 1 37 95
M  V30 103 1 38 96
M  V30 104 1 38 97
M  V30 105 1 38 98
M  V30 106 1 40 99
M  V30 107 1 41 100
M  V30 108 1 42 101
M  V30 109 1 44 102
M  V30 110 1 45 103
M  V30 111 1 46 104
M  V30 112 1 50 105
M  V30 113 1 50 106
M  V30 114 1 50 107
M  V30 115 1 51 108
M  V30 116 1 51 109
M  V30 117 1 52 110
M  V30 118 1 52 111
M  V30 119 1 54 112
M  V30 120 1 54 113
M  V30 121 1 54 114
M  V30 END BOND
M  V30 END CTAB
M  END
