
  --CCDC--092525    3D                              

 19 24  0  0  0  0  0  0  0  0999 V2000
   -0.0879    0.1135    0.0329 H      0
   -1.6340    0.4125    0.0046 Si     0
   -3.4667    1.1004   -0.6602 Cl     0
   -3.2554    0.1102    1.2497 Cl     0
   -3.0449   -0.9633   -0.6144 Cl     0
    0.6454    1.8870    0.0089 Mn     0
    1.4009    0.7023    1.8175 C      0
    1.7869    0.1221    2.7199 O      0
   -0.6756    2.3318    1.8243 C      0
   -1.3329    2.5532    2.7278 O      0
    1.0521    2.4755   -2.0469 C      0
    2.2530    2.0413   -1.4475 C      0
    2.5062    2.9547   -0.3662 C      0
    1.3706    3.9171   -0.0022 C      0
    1.2310    4.9820    1.0628 C      0
    0.6148    3.6258   -1.3010 C      0
    0.6876    5.8446    0.6816 H      0
    2.2089    5.3188    1.4019 H      0
    0.6895    4.5935    1.9233 H      0
  1  2  1
  2  3  1
  2  4  1
  2  5  1
  2  6  1
  1  6  1
  6  7  1
  7  8  3
  6  9  1
  9 10  3
  6 11  1
 11 12  4
  6 12  1
 12 13  4
  6 13  1
 13 14  4
  6 14  1
 14 15  1
 14 16  4
  6 16  1
 11 16  4
 15 17  1
 15 18  1
 15 19  1
M  END
$$$$
