
  --CCDC--092525    3D                              

114121  0  0  0  0  0  0  0  0999 V2000
    0.1369   -0.1240   -0.0157 C      0
    1.4597   -0.0039    0.4357 O      0
    2.1832   -1.1725    0.1115 C      0
    2.5862   -1.0831   -1.3335 C      0
    3.4598    0.0130   -1.4883 O      0
    4.8101   -0.3430   -1.6154 C      0
    2.7531    2.2252   -0.2036 Eu     0
    1.5909    2.4807   -2.5813 N      0
    1.0206    2.5898   -3.7808 C      0
    0.2891    2.7297   -5.3193 S      0
    2.6348    4.8809   -0.0896 N      0
    3.7604    5.6543   -0.4908 C      0
    4.0196    5.9221   -1.8597 C      0
    5.2750    6.4245   -2.1835 C      0
    6.2094    6.7051   -1.2109 C      0
    5.8746    6.5831    0.1240 C      0
    4.6140    6.1334    0.5413 C      0
    4.2460    6.2407    2.0358 C      0
    5.1791    5.5779    3.0519 C      0
    4.1264    7.6843    2.5239 C      0
    3.0708    5.7727   -3.0465 C      0
    2.8322    7.1237   -3.7200 C      0
    3.4671    4.7035   -4.0662 C      0
    1.5130    5.4929    0.5414 C      0
    0.5309    4.6904    1.1074 C      0
    0.6336    3.2671    1.0275 N      0
   -0.3509    2.4440    1.6492 C      0
   -0.0418    1.8701    2.8969 C      0
   -0.9856    1.0199    3.4757 C      0
   -2.1951    0.7627    2.8567 C      0
   -2.5133    1.4014    1.6727 C      0
   -1.6227    2.2778    1.0557 C      0
   -2.1045    3.0032   -0.1945 C      0
   -3.3971    3.7709    0.0878 C      0
   -2.4166    2.0344   -1.3353 C      0
    1.2539    2.2007    3.6230 C      0
    1.9030    0.9774    4.2701 C      0
    0.9993    3.2511    4.7032 C      0
   -0.4540    5.5457    1.7813 C      0
   -1.5794    5.4045    2.5599 C      0
   -2.2187    6.5226    3.0818 C      0
   -1.7608    7.7918    2.8629 C      0
   -0.6064    7.9988    2.0730 C      0
   -0.0092    9.2473    1.7789 C      0
    1.1255    9.2965    1.0154 C      0
    1.7391    8.1498    0.5195 C      0
    1.2066    6.9075    0.7911 C      0
    0.0229    6.8516    1.5523 C      0
    5.3024    2.8291   -0.6201 O      0
    5.8688    2.7560   -1.9023 C      0
    6.1572    2.3250    0.3853 C      0
    5.5789    2.6431    1.7389 C      0
    4.3324    1.9942    1.9159 O      0
    4.4668    0.7669    2.5818 C      0
   -0.1278    0.7450   -0.6089 H      0
   -0.5545   -0.1812    0.8206 H      0
   -0.0037   -1.0075   -0.6348 H      0
    1.5637   -2.0638    0.2761 H      0
    3.0682   -1.2729    0.7511 H      0
    3.0747   -2.0084   -1.6598 H      0
    1.7010   -0.9611   -1.9676 H      0
    4.9094   -1.3758   -1.9369 H      0
    5.3285   -0.2343   -0.6667 H      0
    5.3097    0.2771   -2.3536 H      0
    5.5254    6.5965   -3.2252 H      0
    7.2015    7.0395   -1.4960 H      0
    6.6352    6.8583    0.8436 H      0
    3.2537    5.7809    2.1695 H      0
    6.1486    5.3776    2.6112 H      0
    4.7714    4.6316    3.3985 H      0
    5.3224    6.2141    3.9234 H      0
    5.0065    7.9711    3.0949 H      0
    3.2571    7.8045    3.1671 H      0
    4.0254    8.3706    1.6866 H      0
    2.0978    5.4549   -2.6393 H      0
    2.1716    7.0230   -4.5786 H      0
    3.7650    7.5662   -4.0552 H      0
    2.3691    7.8187   -3.0232 H      0
    4.4079    4.9418   -4.5526 H      0
    2.7085    4.6077   -4.8404 H      0
    3.5730    3.7358   -3.5802 H      0
   -0.7862    0.5542    4.4342 H      0
   -2.9013    0.0744    3.3100 H      0
   -3.4815    1.2202    1.2179 H      0
   -1.3315    3.7129   -0.5273 H      0
   -3.8578    4.1028   -0.8402 H      0
   -4.1128    3.1405    0.6117 H      0
   -3.2143    4.6492    0.6986 H      0
   -2.9820    1.1798   -0.9701 H      0
   -1.5122    1.6652   -1.8087 H      0
   -3.0114    2.5264   -2.1019 H      0
    1.9600    2.6234    2.8928 H      0
    1.2445    0.5416    5.0186 H      0
    2.8331    1.2509    4.7629 H      0
    2.1239    0.2141    3.5273 H      0
    0.3297    2.8680    5.4705 H      0
    0.5471    4.1425    4.2742 H      0
    1.9315    3.5408    5.1827 H      0
   -1.9657    4.4142    2.7724 H      0
   -3.1062    6.3839    3.6903 H      0
   -2.2738    8.6400    3.3059 H      0
   -0.4450   10.1644    2.1665 H      0
    1.5655   10.2646    0.7952 H      0
    2.6426    8.2355   -0.0762 H      0
    6.5018    1.8777   -1.9937 H      0
    6.4885    3.6250   -2.1045 H      0
    5.1041    2.6997   -2.6726 H      0
    6.2882    1.2417    0.2678 H      0
    7.1489    2.7843    0.2898 H      0
    6.2697    2.3353    2.5327 H      0
    5.4720    3.7284    1.8300 H      0
    3.6714    0.0761    2.3097 H      0
    4.4331    0.9109    3.6605 H      0
    5.4206    0.3084    2.3344 H      0
  1  2  1
  2  3  1
  3  4  1
  4  5  1
  5  6  1
  5  7  1
  2  7  1
  7  8  1
  8  9  4
  9 10  4
  7 11  1
 11 12  1
 12 13  4
 13 14  4
 14 15  4
 15 16  4
 16 17  4
 12 17  4
 17 18  1
 18 19  1
 18 20  1
 13 21  1
 21 22  1
 21 23  1
 11 24  1
 24 25  2
 25 26  1
  7 26  1
 26 27  1
 27 28  4
 28 29  4
 29 30  4
 30 31  4
 31 32  4
 27 32  4
 32 33  1
 33 34  1
 33 35  1
 28 36  1
 36 37  1
 36 38  1
 25 39  1
 39 40  4
 40 41  4
 41 42  4
 42 43  4
 43 44  4
 44 45  4
 45 46  4
 46 47  4
 24 47  1
 47 48  4
 39 48  4
 43 48  4
  7 49  1
 49 50  1
 49 51  1
 51 52  1
 52 53  1
  7 53  1
 53 54  1
  1 55  1
  1 56  1
  1 57  1
  3 58  1
  3 59  1
  4 60  1
  4 61  1
  6 62  1
  6 63  1
  6 64  1
 14 65  1
 15 66  1
 16 67  1
 18 68  1
 19 69  1
 19 70  1
 19 71  1
 20 72  1
 20 73  1
 20 74  1
 21 75  1
 22 76  1
 22 77  1
 22 78  1
 23 79  1
 23 80  1
 23 81  1
 29 82  1
 30 83  1
 31 84  1
 33 85  1
 34 86  1
 34 87  1
 34 88  1
 35 89  1
 35 90  1
 35 91  1
 36 92  1
 37 93  1
 37 94  1
 37 95  1
 38 96  1
 38 97  1
 38 98  1
 40 99  1
 41100  1
 42101  1
 44102  1
 45103  1
 46104  1
 50105  1
 50106  1
 50107  1
 51108  1
 51109  1
 52110  1
 52111  1
 54112  1
 54113  1
 54114  1
M  END
$$$$
