
 OpenBabel09252517393D

114121  0  0  0  0  0  0  0  0999 V2000
    0.9273   -0.0288    0.0623 H   0  0  0  0  0  0  0  0  0  0  0  0
    1.9973   -0.0288    0.0623 C   0  0  0  0  0  3  0  0  0  0  0  0
    2.5095   -1.4117   -0.3468 C   0  0  0  0  0  3  0  0  0  0  0  0
    2.1204   -2.1491    0.3238 H   0  0  0  0  0  0  0  0  0  0  0  0
    2.0793   -1.7039   -1.6781 C   0  0  0  0  0  3  0  0  0  0  0  0
    2.5627   -3.0985   -2.0408 C   0  0  0  0  0  0  0  0  0  0  0  0
    3.6307   -3.1316   -1.9849 H   0  0  0  0  0  0  0  0  0  0  0  0
    1.9730   -4.1078   -1.0692 C   0  0  0  0  0  0  0  0  0  0  0  0
    0.9050   -4.0748   -1.1251 H   0  0  0  0  0  0  0  0  0  0  0  0
    2.3133   -5.0896   -1.3246 H   0  0  0  0  0  0  0  0  0  0  0  0
    2.2856   -3.8696   -0.0740 H   0  0  0  0  0  0  0  0  0  0  0  0
    2.1186   -3.4369   -3.4546 C   0  0  0  0  0  0  0  0  0  0  0  0
    1.0506   -3.4039   -3.5105 H   0  0  0  0  0  0  0  0  0  0  0  0
    2.5337   -2.7264   -4.1385 H   0  0  0  0  0  0  0  0  0  0  0  0
    2.4589   -4.4187   -3.7099 H   0  0  0  0  0  0  0  0  0  0  0  0
    2.5667   -0.7899   -2.6621 C   0  0  0  0  0  3  0  0  0  0  0  0
    4.0367   -0.7933   -2.6488 N   0  0  0  0  0  0  0  0  0  0  0  0
    4.9850   -1.1475   -3.7774 C   0  0  0  0  0  0  0  0  0  0  0  0
    6.1721   -0.7599   -3.5215 C   0  0  0  0  0  0  0  0  0  0  0  0
    7.3496   -0.9725   -4.4590 C   0  0  0  0  0  3  0  0  0  0  0  0
    7.9416    0.3817   -4.8563 C   0  0  0  0  0  3  0  0  0  0  0  0
    7.1804    0.9866   -5.3030 H   0  0  0  0  0  0  0  0  0  0  0  0
    8.4506    1.0382   -3.6933 C   0  0  0  0  0  3  0  0  0  0  0  0
    8.8305    1.9946   -3.9865 H   0  0  0  0  0  0  0  0  0  0  0  0
    9.4959    0.3239   -3.0312 C   0  0  0  0  0  3  0  0  0  0  0  0
   10.3101    0.1734   -3.7089 H   0  0  0  0  0  0  0  0  0  0  0  0
    8.9667   -1.0327   -2.5600 C   0  0  0  0  0  3  0  0  0  0  0  0
   10.0923   -1.8193   -1.9083 C   0  0  0  0  0  3  0  0  0  0  0  0
   10.4696   -1.2734   -1.0689 H   0  0  0  0  0  0  0  0  0  0  0  0
    9.5649   -3.1661   -1.4411 C   0  0  0  0  0  3  0  0  0  0  0  0
    9.1876   -3.7121   -2.2804 H   0  0  0  0  0  0  0  0  0  0  0  0
   10.6905   -3.9527   -0.7894 C   0  0  0  0  0  3  0  0  0  0  0  0
   10.3192   -4.9008   -0.4605 H   0  0  0  0  0  0  0  0  0  0  0  0
    9.5641   -2.0840   -4.7407 C   0  0  0  0  0  3  0  0  0  0  0  0
    8.4302   -1.8094   -3.7665 C   0  0  0  0  0  3  0  0  0  0  0  0
    6.2772   -0.0842   -2.2191 N   0  0  0  0  0  0  0  0  0  0  0  0
    7.3841    0.7477   -1.7257 C   0  0  0  0  0  3  0  0  0  0  0  0
    6.5030    1.9361   -1.3335 C   0  0  0  0  0  3  0  0  0  0  0  0
    5.9178    2.5683   -2.5858 C   0  0  0  0  0  0  0  0  0  0  0  0
    5.3285    1.8443   -3.1088 H   0  0  0  0  0  0  0  0  0  0  0  0
    5.0423    3.7481   -2.1960 C   0  0  0  0  0  0  0  0  0  0  0  0
    5.6316    4.4721   -1.6730 H   0  0  0  0  0  0  0  0  0  0  0  0
    4.6303    4.1931   -3.0776 H   0  0  0  0  0  0  0  0  0  0  0  0
    4.2487    3.4096   -1.5631 H   0  0  0  0  0  0  0  0  0  0  0  0
    7.0451    3.0491   -3.4849 C   0  0  0  0  0  0  0  0  0  0  0  0
    7.6344    3.7730   -2.9618 H   0  0  0  0  0  0  0  0  0  0  0  0
    7.6614    2.2185   -3.7592 H   0  0  0  0  0  0  0  0  0  0  0  0
    6.6332    3.4941   -4.3664 H   0  0  0  0  0  0  0  0  0  0  0  0
    5.4431    1.4840   -0.4880 C   0  0  0  0  0  3  0  0  0  0  0  0
    4.8214    2.3220   -0.2512 H   0  0  0  0  0  0  0  0  0  0  0  0
    5.8850    0.8930    0.7354 C   0  0  0  0  0  3  0  0  0  0  0  0
    6.4664    1.6034    1.2852 H   0  0  0  0  0  0  0  0  0  0  0  0
    6.7412   -0.3376    0.4269 C   0  0  0  0  0  3  0  0  0  0  0  0
    7.1078   -0.7569    1.3404 H   0  0  0  0  0  0  0  0  0  0  0  0
    7.9216    0.0801   -0.4557 C   0  0  0  0  0  3  0  0  0  0  0  0
    8.8020    1.0606    0.3018 C   0  0  0  0  0  0  0  0  0  0  0  0
    8.2295    1.9260    0.5629 H   0  0  0  0  0  0  0  0  0  0  0  0
    9.3257    0.3992    1.5662 C   0  0  0  0  0  0  0  0  0  0  0  0
    9.8983   -0.4662    1.3051 H   0  0  0  0  0  0  0  0  0  0  0  0
    9.9455    1.0894    2.0994 H   0  0  0  0  0  0  0  0  0  0  0  0
    8.5019    0.1087    2.1841 H   0  0  0  0  0  0  0  0  0  0  0  0
    9.9723    1.4733   -0.5761 C   0  0  0  0  0  0  0  0  0  0  0  0
   10.5449    0.6079   -0.8371 H   0  0  0  0  0  0  0  0  0  0  0  0
    9.6037    1.9389   -1.4661 H   0  0  0  0  0  0  0  0  0  0  0  0
   10.5921    2.1636   -0.0429 H   0  0  0  0  0  0  0  0  0  0  0  0
    4.9767   -0.4401   -1.4908 Eu  0  0  0  0  0  0  0  0  0  0  0  0
    6.4306   -0.7987    0.7438 N   0  0  0  0  0  0  0  0  0  0  0  0
    6.4466   -1.9731    1.3368 C   0  0  0  0  0  0  0  0  0  0  0  0
    6.4663   -3.4190    2.0669 S   0  0  0  0  0  0  0  0  0  0  0  0
    4.4454    0.7394   -0.6658 O   0  0  0  0  0  0  0  0  0  0  0  0
    4.7745    1.9811   -1.2710 C   0  0  0  0  0  0  0  0  0  0  0  0
    5.8381    2.0701   -1.3468 H   0  0  0  0  0  0  0  0  0  0  0  0
    4.3421    2.0271   -2.2487 H   0  0  0  0  0  0  0  0  0  0  0  0
    4.3912    2.7818   -0.6735 H   0  0  0  0  0  0  0  0  0  0  0  0
    5.1903    0.5559    0.6845 C   0  0  0  0  0  0  0  0  0  0  0  0
    4.6899    1.0349    1.5000 H   0  0  0  0  0  0  0  0  0  0  0  0
    6.1674    0.9898    0.6421 H   0  0  0  0  0  0  0  0  0  0  0  0
    5.2766   -0.9754    0.8563 C   0  0  0  0  0  0  0  0  0  0  0  0
    6.2002   -1.2577    1.3169 H   0  0  0  0  0  0  0  0  0  0  0  0
    4.4802   -1.3210    1.4818 H   0  0  0  0  0  0  0  0  0  0  0  0
    5.1527   -1.5822   -0.5296 O   0  0  0  0  0  0  0  0  0  0  0  0
    4.0272   -2.4461   -0.5859 C   0  0  0  0  0  0  0  0  0  0  0  0
    3.1450   -1.9001   -0.3242 H   0  0  0  0  0  0  0  0  0  0  0  0
    3.9251   -2.8347   -1.5776 H   0  0  0  0  0  0  0  0  0  0  0  0
    4.1633   -3.2546    0.1016 H   0  0  0  0  0  0  0  0  0  0  0  0
    4.8307    1.8438   -2.8069 O   0  0  0  0  0  0  0  0  0  0  0  0
    3.4810    2.2835   -2.8437 C   0  0  0  0  0  0  0  0  0  0  0  0
    3.1244    2.4241   -1.8447 H   0  0  0  0  0  0  0  0  0  0  0  0
    3.4219    3.2092   -3.3771 H   0  0  0  0  0  0  0  0  0  0  0  0
    2.8798    1.5486   -3.3369 H   0  0  0  0  0  0  0  0  0  0  0  0
    5.6286    2.8192   -2.1523 C   0  0  0  0  0  0  0  0  0  0  0  0
    5.2720    2.9598   -1.1533 H   0  0  0  0  0  0  0  0  0  0  0  0
    6.6457    2.4879   -2.1246 H   0  0  0  0  0  0  0  0  0  0  0  0
    5.5446    4.1342   -2.9101 C   0  0  0  0  0  0  0  0  0  0  0  0
    4.5275    4.4655   -2.9378 H   0  0  0  0  0  0  0  0  0  0  0  0
    6.1458    4.8691   -2.4168 H   0  0  0  0  0  0  0  0  0  0  0  0
    3.6293   -2.0998   -3.0398 O   0  0  0  0  0  0  0  0  0  0  0  0
    3.0343   -1.3748   -4.1059 C   0  0  0  0  0  0  0  0  0  0  0  0
    2.3682   -0.6380   -3.7080 H   0  0  0  0  0  0  0  0  0  0  0  0
    3.7982   -0.8925   -4.6793 H   0  0  0  0  0  0  0  0  0  0  0  0
    2.4882   -2.0475   -4.7337 H   0  0  0  0  0  0  0  0  0  0  0  0
    2.0568    0.6183   -2.3466 C   0  0  0  0  0  3  0  0  0  0  0  0
    2.6226    1.6025   -3.3573 C   0  0  0  0  0  0  0  0  0  0  0  0
    3.6913    1.5913   -3.3064 H   0  0  0  0  0  0  0  0  0  0  0  0
    2.1778    1.2051   -4.7554 C   0  0  0  0  0  0  0  0  0  0  0  0
    1.1090    1.2163   -4.8063 H   0  0  0  0  0  0  0  0  0  0  0  0
    2.5761    1.8979   -5.4668 H   0  0  0  0  0  0  0  0  0  0  0  0
    2.5351    0.2212   -4.9771 H   0  0  0  0  0  0  0  0  0  0  0  0
    2.1150    3.0002   -3.0423 C   0  0  0  0  0  0  0  0  0  0  0  0
    1.0463    3.0115   -3.0932 H   0  0  0  0  0  0  0  0  0  0  0  0
    2.4282    3.2800   -2.0581 H   0  0  0  0  0  0  0  0  0  0  0  0
    2.5133    3.6931   -3.7538 H   0  0  0  0  0  0  0  0  0  0  0  0
    2.5101    1.0128   -0.9375 C   0  0  0  0  0  3  0  0  0  0  0  0
    3.5789    1.0487   -0.9016 H   0  0  0  0  0  0  0  0  0  0  0  0
  1  2  1  0  0  0  0
  2  3  1  0  0  0  0
  2113  1  0  0  0  0
  3  4  1  0  0  0  0
  3  5  1  0  0  0  0
  5  6  1  0  0  0  0
  5 16  1  0  0  0  0
  6  7  1  0  0  0  0
  6  8  1  0  0  0  0
  6 12  1  0  0  0  0
  8  9  1  0  0  0  0
  8 10  1  0  0  0  0
  8 11  1  0  0  0  0
 12 13  1  0  0  0  0
 12 14  1  0  0  0  0
 12 15  1  0  0  0  0
 16 17  1  0  0  0  0
 16102  1  0  0  0  0
 17 18  1  0  0  0  0
 17 66  1  0  0  0  0
 18 19  2  0  0  0  0
 18 34  1  0  0  0  0
 19 20  1  0  0  0  0
 19 36  1  0  0  0  0
 20 21  1  0  0  0  0
 20 35  1  0  0  0  0
 21 22  1  0  0  0  0
 21 23  1  0  0  0  0
 23 24  1  0  0  0  0
 23 25  1  0  0  0  0
 25 26  1  0  0  0  0
 25 27  1  0  0  0  0
 27 28  1  0  0  0  0
 27 35  1  0  0  0  0
 28 29  1  0  0  0  0
 28 30  1  0  0  0  0
 30 31  1  0  0  0  0
 30 32  1  0  0  0  0
 32 33  1  0  0  0  0
 32 34  1  0  0  0  0
 34 35  1  0  0  0  0
 36 37  1  0  0  0  0
 36 66  1  0  0  0  0
 37 38  1  0  0  0  0
 37 55  1  0  0  0  0
 38 39  1  0  0  0  0
 38 49  1  0  0  0  0
 39 40  1  0  0  0  0
 39 41  1  0  0  0  0
 39 45  1  0  0  0  0
 41 42  1  0  0  0  0
 41 43  1  0  0  0  0
 41 44  1  0  0  0  0
 45 46  1  0  0  0  0
 45 47  1  0  0  0  0
 45 48  1  0  0  0  0
 49 50  1  0  0  0  0
 49 51  1  0  0  0  0
 51 52  1  0  0  0  0
 51 53  1  0  0  0  0
 53 54  1  0  0  0  0
 53 55  1  0  0  0  0
 55 56  1  0  0  0  0
 56 57  1  0  0  0  0
 56 58  1  0  0  0  0
 56 62  1  0  0  0  0
 58 59  1  0  0  0  0
 58 60  1  0  0  0  0
 58 61  1  0  0  0  0
 62 63  1  0  0  0  0
 62 64  1  0  0  0  0
 62 65  1  0  0  0  0
 66 67  1  0  0  0  0
 66 70  1  0  0  0  0
 66 81  1  0  0  0  0
 66 86  1  0  0  0  0
 66 97  1  0  0  0  0
 67 68  2  0  0  0  0
 68 69  2  0  0  0  0
 70 71  1  0  0  0  0
 70 75  1  0  0  0  0
 71 72  1  0  0  0  0
 71 73  1  0  0  0  0
 71 74  1  0  0  0  0
 75 76  1  0  0  0  0
 75 77  1  0  0  0  0
 75 78  1  0  0  0  0
 78 79  1  0  0  0  0
 78 80  1  0  0  0  0
 78 81  1  0  0  0  0
 81 82  1  0  0  0  0
 82 83  1  0  0  0  0
 82 84  1  0  0  0  0
 82 85  1  0  0  0  0
 86 87  1  0  0  0  0
 86 91  1  0  0  0  0
 87 88  1  0  0  0  0
 87 89  1  0  0  0  0
 87 90  1  0  0  0  0
 91 92  1  0  0  0  0
 91 93  1  0  0  0  0
 91 94  1  0  0  0  0
 94 95  1  0  0  0  0
 94 96  1  0  0  0  0
 94 97  1  0  0  0  0
 97 98  1  0  0  0  0
 98 99  1  0  0  0  0
 98100  1  0  0  0  0
 98101  1  0  0  0  0
102103  1  0  0  0  0
102113  1  0  0  0  0
103104  1  0  0  0  0
103105  1  0  0  0  0
103109  1  0  0  0  0
105106  1  0  0  0  0
105107  1  0  0  0  0
105108  1  0  0  0  0
109110  1  0  0  0  0
109111  1  0  0  0  0
109112  1  0  0  0  0
113114  1  0  0  0  0
M  END
$$$$
