
     RDKit          3D

 57 60  0  0  0  0  0  0  0  0999 V2000
   -5.1938    2.1479    0.6368 C   0  0  0  0  0  0  0  0  0  0  0  0
   -5.5165    1.0587   -0.1685 C   0  0  0  0  0  0  0  0  0  0  0  0
   -4.5981    0.0212   -0.3374 C   0  0  0  0  0  0  0  0  0  0  0  0
   -3.3403    0.0717    0.2776 C   0  0  0  0  0  0  0  0  0  0  0  0
   -2.4660   -1.0812    0.0940 N   0  0  0  0  0  0  0  0  0  0  0  0
   -1.0402   -0.8136    0.2608 C   0  0  0  0  0  0  0  0  0  0  0  0
   -0.3467   -0.3791   -0.8141 C   0  0  0  0  0  0  0  0  0  0  0  0
    1.0660   -0.1521   -0.7599 C   0  0  0  0  0  0  0  0  0  0  0  0
    2.2534    0.0357   -0.7431 C   0  0  0  0  0  0  0  0  0  0  0  0
    3.6722    0.2475   -0.7491 C   0  0  0  0  0  0  0  0  0  0  0  0
    4.3985   -0.1695   -1.8720 C   0  0  0  0  0  0  0  0  0  0  0  0
    5.7791    0.0125   -1.9234 C   0  0  0  0  0  0  0  0  0  0  0  0
    6.4373    0.6124   -0.8533 C   0  0  0  0  0  0  0  0  0  0  0  0
    5.7189    1.0319    0.2710 C   0  0  0  0  0  0  0  0  0  0  0  0
    4.3316    0.8541    0.3354 C   0  0  0  0  0  0  0  0  0  0  0  0
    3.5478    1.2371    1.3943 O   0  0  0  0  0  0  0  0  0  0  0  0
    4.1991    1.8116    2.5190 C   0  0  0  0  0  0  0  0  0  0  0  0
   -0.9877   -0.0824   -2.5839 Si  0  0  0  0  0  4  0  0  0  0  0  0
    0.4506   -0.1098   -3.8270 C   0  0  0  0  0  0  0  0  0  0  0  0
   -1.7988    1.6059   -2.7125 C   0  0  0  0  0  0  0  0  0  0  0  0
   -2.1742   -1.4353   -3.1248 C   0  0  0  0  0  0  0  0  0  0  0  0
   -0.5472   -1.1987    1.6041 C   0  0  0  0  0  0  0  0  0  0  0  0
    0.5781   -0.7931    2.3111 C   0  0  0  0  0  0  0  0  0  0  0  0
    0.7892   -1.2711    3.6133 C   0  0  0  0  0  0  0  0  0  0  0  0
   -0.1311   -2.1361    4.2223 C   0  0  0  0  0  0  0  0  0  0  0  0
   -1.2752   -2.5310    3.5361 C   0  0  0  0  0  0  0  0  0  0  0  0
   -1.4399   -2.0532    2.2445 C   0  0  0  0  0  0  0  0  0  0  0  0
   -2.8186   -2.3728    1.2234 S   0  0  0  0  0  6  0  0  0  0  0  0
   -4.0159   -2.1071    1.9903 O   0  0  0  0  0  0  0  0  0  0  0  0
   -2.5731   -3.6441    0.5753 O   0  0  0  0  0  0  0  0  0  0  0  0
   -3.0389    1.1559    1.1131 C   0  0  0  0  0  0  0  0  0  0  0  0
   -3.9589    2.1946    1.2808 C   0  0  0  0  0  0  0  0  0  0  0  0
   -5.9110    2.9533    0.7744 H   0  0  0  0  0  0  0  0  0  0  0  0
   -6.4869    1.0080   -0.6556 H   0  0  0  0  0  0  0  0  0  0  0  0
   -4.8701   -0.8336   -0.9517 H   0  0  0  0  0  0  0  0  0  0  0  0
    3.8896   -0.6390   -2.7109 H   0  0  0  0  0  0  0  0  0  0  0  0
    6.3390   -0.3129   -2.7966 H   0  0  0  0  0  0  0  0  0  0  0  0
    7.5146    0.7563   -0.8921 H   0  0  0  0  0  0  0  0  0  0  0  0
    6.2755    1.4953    1.0792 H   0  0  0  0  0  0  0  0  0  0  0  0
    4.9056    1.1068    2.9691 H   0  0  0  0  0  0  0  0  0  0  0  0
    4.6915    2.7525    2.2534 H   0  0  0  0  0  0  0  0  0  0  0  0
    3.4334    2.0377    3.2675 H   0  0  0  0  0  0  0  0  0  0  0  0
    0.0636   -0.0027   -4.8449 H   0  0  0  0  0  0  0  0  0  0  0  0
    1.1439    0.7143   -3.6369 H   0  0  0  0  0  0  0  0  0  0  0  0
    0.9958   -1.0559   -3.7629 H   0  0  0  0  0  0  0  0  0  0  0  0
   -1.0961    2.3929   -2.4235 H   0  0  0  0  0  0  0  0  0  0  0  0
   -2.6779    1.6815   -2.0701 H   0  0  0  0  0  0  0  0  0  0  0  0
   -2.1177    1.7961   -3.7411 H   0  0  0  0  0  0  0  0  0  0  0  0
   -1.7556   -2.4232   -2.9117 H   0  0  0  0  0  0  0  0  0  0  0  0
   -2.3551   -1.3694   -4.2024 H   0  0  0  0  0  0  0  0  0  0  0  0
   -3.1402   -1.3527   -2.6231 H   0  0  0  0  0  0  0  0  0  0  0  0
    1.2940   -0.0950    1.8912 H   0  0  0  0  0  0  0  0  0  0  0  0
    1.6779   -0.9595    4.1592 H   0  0  0  0  0  0  0  0  0  0  0  0
    0.0468   -2.4905    5.2352 H   0  0  0  0  0  0  0  0  0  0  0  0
   -2.0118   -3.1850    3.9921 H   0  0  0  0  0  0  0  0  0  0  0  0
   -2.0950    1.2198    1.6444 H   0  0  0  0  0  0  0  0  0  0  0  0
   -3.7143    3.0365    1.9235 H   0  0  0  0  0  0  0  0  0  0  0  0
  1  2  2  0
  2  3  1  0
  3  4  2  0
  4  5  1  0
  5  6  1  0
  6  7  2  0
  7  8  1  0
  8  9  3  0
  9 10  1  0
 10 11  2  0
 11 12  1  0
 12 13  2  0
 13 14  1  0
 14 15  2  0
 15 16  1  0
 16 17  1  0
  7 18  1  0
 18 19  1  0
 18 20  1  0
 18 21  1  0
  6 22  1  0
 22 23  2  0
 23 24  1  0
 24 25  2  0
 25 26  1  0
 26 27  2  0
 27 28  1  0
 28 29  2  0
 28 30  2  0
  4 31  1  0
 31 32  2  0
 32  1  1  0
 28  5  1  0
 15 10  1  0
 27 22  1  0
  1 33  1  0
  2 34  1  0
  3 35  1  0
 11 36  1  0
 12 37  1  0
 13 38  1  0
 14 39  1  0
 17 40  1  0
 17 41  1  0
 17 42  1  0
 19 43  1  0
 19 44  1  0
 19 45  1  0
 20 46  1  0
 20 47  1  0
 20 48  1  0
 21 49  1  0
 21 50  1  0
 21 51  1  0
 23 52  1  0
 24 53  1  0
 25 54  1  0
 26 55  1  0
 31 56  1  0
 32 57  1  0
M  END
