
 OpenBabel09252516293D

 32 35  0  0  0  0  0  0  0  0999 V2000
    1.8596    1.1907   -0.7409 H   0  0  0  0  0  0  0  0  0  0  0  0
    2.3959    0.4171   -0.2020 C   0  0  0  0  0  3  0  0  0  0  0  0
    1.7951   -0.8982   -0.0848 C   0  0  0  0  0  3  0  0  0  0  0  0
    0.8197   -1.0863   -0.5177 H   0  0  0  0  0  0  0  0  0  0  0  0
    2.6060   -2.0112    0.3686 C   0  0  0  0  0  3  0  0  0  0  0  0
    2.1483   -2.9836    0.4971 H   0  0  0  0  0  0  0  0  0  0  0  0
    4.0322   -1.8257    0.5684 C   0  0  0  0  0  3  0  0  0  0  0  0
    4.6645   -0.4881    0.6000 C   0  0  0  0  0  3  0  0  0  0  0  0
    3.8212    0.5990    0.0559 C   0  0  0  0  0  3  0  0  0  0  0  0
    4.2927    1.4151   -0.4734 H   0  0  0  0  0  0  0  0  0  0  0  0
    6.1082   -0.3829    0.9481 C   0  0  0  0  0  0  0  0  0  0  0  0
    6.8350   -1.5338    0.9121 C   0  0  0  0  0  0  0  0  0  0  0  0
    6.2073   -2.8619    0.6180 C   0  0  0  0  0  0  0  0  0  0  0  0
    6.8752   -3.8846    0.4853 O   0  0  0  0  0  0  0  0  0  0  0  0
    4.8467   -2.9137    0.5599 N   0  0  0  0  0  0  0  0  0  0  0  0
    4.4587   -3.8359    0.4148 H   0  0  0  0  0  0  0  0  0  0  0  0
    8.3103   -1.6027    1.2238 C   0  0  0  0  0  0  0  0  0  0  0  0
    8.8691   -1.3971    0.3015 H   0  0  0  0  0  0  0  0  0  0  0  0
    8.6086   -2.6051    1.5520 H   0  0  0  0  0  0  0  0  0  0  0  0
    8.7244   -0.6305    2.3193 C   0  0  0  0  0  0  0  0  0  0  0  0
    9.8198   -0.5933    2.3619 H   0  0  0  0  0  0  0  0  0  0  0  0
    8.3801   -1.0024    3.2930 H   0  0  0  0  0  0  0  0  0  0  0  0
    8.1543    0.7304    2.0959 C   0  0  0  0  0  3  0  0  0  0  0  0
    8.8339    1.8773    2.6870 C   0  0  0  0  0  3  0  0  0  0  0  0
    9.7928    1.7542    3.1760 H   0  0  0  0  0  0  0  0  0  0  0  0
    8.1915    3.1736    2.7075 C   0  0  0  0  0  3  0  0  0  0  0  0
    8.6504    4.0024    3.2312 H   0  0  0  0  0  0  0  0  0  0  0  0
    6.8918    3.3271    2.0941 C   0  0  0  0  0  3  0  0  0  0  0  0
    6.3585    4.2657    2.1797 H   0  0  0  0  0  0  0  0  0  0  0  0
    6.3032    2.2274    1.3445 C   0  0  0  0  0  3  0  0  0  0  0  0
    5.6230    2.5133    0.5594 H   0  0  0  0  0  0  0  0  0  0  0  0
    6.8170    0.8442    1.4410 C   0  0  0  0  0  3  0  0  0  0  0  0
  1  2  1  0  0  0  0
  2  3  1  0  0  0  0
  2  9  1  0  0  0  0
  3  4  1  0  0  0  0
  3  5  1  0  0  0  0
  5  6  1  0  0  0  0
  5  7  1  0  0  0  0
  7  8  1  0  0  0  0
  7 15  1  0  0  0  0
  8  9  1  0  0  0  0
  8 11  1  0  0  0  0
  9 10  1  0  0  0  0
 11 12  2  0  0  0  0
 11 32  1  0  0  0  0
 12 13  1  0  0  0  0
 12 17  1  0  0  0  0
 13 14  2  0  0  0  0
 13 15  1  0  0  0  0
 15 16  1  0  0  0  0
 17 18  1  0  0  0  0
 17 19  1  0  0  0  0
 17 20  1  0  0  0  0
 20 21  1  0  0  0  0
 20 22  1  0  0  0  0
 20 23  1  0  0  0  0
 23 24  1  0  0  0  0
 23 32  1  0  0  0  0
 24 25  1  0  0  0  0
 24 26  1  0  0  0  0
 26 27  1  0  0  0  0
 26 28  1  0  0  0  0
 28 29  1  0  0  0  0
 28 30  1  0  0  0  0
 30 31  1  0  0  0  0
 30 32  1  0  0  0  0
M  END
$$$$
