
 OpenBabel09252518283D

 57 60  0  0  0  0  0  0  0  0999 V2000
    1.2852    0.0233    1.5161 H   0  0  0  0  0  0  0  0  0  0  0  0
    1.8579    0.0045    0.5965 C   0  0  0  0  0  3  0  0  0  0  0  0
    1.9019   -1.2125   -0.1989 C   0  0  0  0  0  3  0  0  0  0  0  0
    1.4374   -2.1139    0.1844 H   0  0  0  0  0  0  0  0  0  0  0  0
    2.8234   -1.3116   -1.3228 C   0  0  0  0  0  3  0  0  0  0  0  0
    3.0290   -2.2901   -1.7418 H   0  0  0  0  0  0  0  0  0  0  0  0
    3.7098   -0.1951   -1.6546 C   0  0  0  0  0  3  0  0  0  0  0  0
    4.7525   -0.4707   -2.5602 N   0  0  0  0  0  0  0  0  0  0  0  0
    4.7694   -0.1890   -3.9831 C   0  0  0  0  0  0  0  0  0  0  0  0
    4.1401    0.9261   -4.4231 C   0  0  0  0  0  0  0  0  0  0  0  0
    4.9109    1.8186   -5.3821 C   0  0  0  0  0  0  0  0  0  0  0  0
    5.5721    2.5842   -6.2048 C   0  0  0  0  0  0  0  0  0  0  0  0
    6.0008    3.5747   -7.1423 C   0  0  0  0  0  3  0  0  0  0  0  0
    5.1698    3.6860   -8.3519 C   0  0  0  0  0  3  0  0  0  0  0  0
    4.9574    2.8032   -8.9414 H   0  0  0  0  0  0  0  0  0  0  0  0
    4.4971    4.9448   -8.6520 C   0  0  0  0  0  3  0  0  0  0  0  0
    3.8263    5.0133   -9.4990 H   0  0  0  0  0  0  0  0  0  0  0  0
    4.7205    6.1073   -7.8033 C   0  0  0  0  0  3  0  0  0  0  0  0
    4.1946    7.0335   -7.9979 H   0  0  0  0  0  0  0  0  0  0  0  0
    5.7503    6.0611   -6.7747 C   0  0  0  0  0  3  0  0  0  0  0  0
    6.0549    6.9657   -6.2644 H   0  0  0  0  0  0  0  0  0  0  0  0
    6.5294    4.8393   -6.6030 C   0  0  0  0  0  3  0  0  0  0  0  0
    7.8774    5.0675   -6.4361 O   0  0  0  0  0  0  0  0  0  0  0  0
    8.7664    4.0799   -6.9442 C   0  0  0  0  0  0  0  0  0  0  0  0
    8.8139    3.2262   -6.2629 H   0  0  0  0  0  0  0  0  0  0  0  0
    8.4978    3.7599   -7.9573 H   0  0  0  0  0  0  0  0  0  0  0  0
    9.7630    4.5290   -7.0040 H   0  0  0  0  0  0  0  0  0  0  0  0
    2.2670    1.1018   -4.6870 Si  0  0  0  0  0  0  0  0  0  0  0  0
    1.5520   -0.6029   -5.0884 C   0  0  0  0  0  0  0  0  0  0  0  0
    1.7259   -1.3049   -4.2690 H   0  0  0  0  0  0  0  0  0  0  0  0
    0.4737   -0.5301   -5.2590 H   0  0  0  0  0  0  0  0  0  0  0  0
    2.0160   -1.0043   -5.9947 H   0  0  0  0  0  0  0  0  0  0  0  0
    1.3386    1.8077   -3.2276 C   0  0  0  0  0  0  0  0  0  0  0  0
    1.8751    2.6513   -2.7851 H   0  0  0  0  0  0  0  0  0  0  0  0
    0.3551    2.1679   -3.5472 H   0  0  0  0  0  0  0  0  0  0  0  0
    1.1656    1.0518   -2.4595 H   0  0  0  0  0  0  0  0  0  0  0  0
    1.9112    2.2258   -6.1748 C   0  0  0  0  0  0  0  0  0  0  0  0
    2.2810    3.2387   -5.9898 H   0  0  0  0  0  0  0  0  0  0  0  0
    2.3874    1.8351   -7.0789 H   0  0  0  0  0  0  0  0  0  0  0  0
    0.8332    2.2822   -6.3530 H   0  0  0  0  0  0  0  0  0  0  0  0
    6.0786   -0.5912   -4.5215 C   0  0  0  0  0  3  0  0  0  0  0  0
    6.4257   -1.0070   -5.8795 C   0  0  0  0  0  3  0  0  0  0  0  0
    5.6504   -1.3042   -6.5754 H   0  0  0  0  0  0  0  0  0  0  0  0
    7.8322   -1.1184   -6.2487 C   0  0  0  0  0  3  0  0  0  0  0  0
    8.1039   -1.4840   -7.2319 H   0  0  0  0  0  0  0  0  0  0  0  0
    8.8743   -0.7570   -5.2885 C   0  0  0  0  0  3  0  0  0  0  0  0
    9.8501   -0.4630   -5.6576 H   0  0  0  0  0  0  0  0  0  0  0  0
    8.5264   -0.5232   -3.8857 C   0  0  0  0  0  3  0  0  0  0  0  0
    9.2177   -0.0010   -3.2349 H   0  0  0  0  0  0  0  0  0  0  0  0
    7.1293   -0.6180   -3.5165 C   0  0  0  0  0  3  0  0  0  0  0  0
    6.3896   -0.3741   -1.9751 S   0  0  0  0  0  0  0  0  0  0  0  0
    6.6711    0.9803   -1.5305 O   0  0  0  0  0  0  0  0  0  0  0  0
    6.6417   -1.5148   -1.1227 O   0  0  0  0  0  0  0  0  0  0  0  0
    3.6762    1.0102   -0.8343 C   0  0  0  0  0  3  0  0  0  0  0  0
    4.3069    1.8574   -1.0737 H   0  0  0  0  0  0  0  0  0  0  0  0
    2.7375    1.1167    0.2739 C   0  0  0  0  0  3  0  0  0  0  0  0
    2.7407    2.0027    0.8966 H   0  0  0  0  0  0  0  0  0  0  0  0
  1  2  1  0  0  0  0
  2  3  1  0  0  0  0
  2 56  1  0  0  0  0
  3  4  1  0  0  0  0
  3  5  1  0  0  0  0
  5  6  1  0  0  0  0
  5  7  1  0  0  0  0
  7  8  1  0  0  0  0
  7 54  1  0  0  0  0
  8  9  1  0  0  0  0
  8 51  1  0  0  0  0
  9 10  2  0  0  0  0
  9 41  1  0  0  0  0
 10 11  1  0  0  0  0
 10 28  1  0  0  0  0
 11 12  3  0  0  0  0
 12 13  1  0  0  0  0
 13 14  1  0  0  0  0
 13 22  1  0  0  0  0
 14 15  1  0  0  0  0
 14 16  1  0  0  0  0
 16 17  1  0  0  0  0
 16 18  1  0  0  0  0
 18 19  1  0  0  0  0
 18 20  1  0  0  0  0
 20 21  1  0  0  0  0
 20 22  1  0  0  0  0
 22 23  1  0  0  0  0
 23 24  1  0  0  0  0
 24 25  1  0  0  0  0
 24 26  1  0  0  0  0
 24 27  1  0  0  0  0
 28 29  1  0  0  0  0
 28 33  1  0  0  0  0
 28 37  1  0  0  0  0
 29 30  1  0  0  0  0
 29 31  1  0  0  0  0
 29 32  1  0  0  0  0
 33 34  1  0  0  0  0
 33 35  1  0  0  0  0
 33 36  1  0  0  0  0
 37 38  1  0  0  0  0
 37 39  1  0  0  0  0
 37 40  1  0  0  0  0
 41 42  1  0  0  0  0
 41 50  1  0  0  0  0
 42 43  1  0  0  0  0
 42 44  1  0  0  0  0
 44 45  1  0  0  0  0
 44 46  1  0  0  0  0
 46 47  1  0  0  0  0
 46 48  1  0  0  0  0
 48 49  1  0  0  0  0
 48 50  1  0  0  0  0
 50 51  1  0  0  0  0
 51 52  2  0  0  0  0
 51 53  2  0  0  0  0
 54 55  1  0  0  0  0
 54 56  1  0  0  0  0
 56 57  1  0  0  0  0
M  END
$$$$
