
  --CCDC--092525    3D                              

 68 74  0  0  0  0  0  0  0  0999 V2000
    5.7315   -0.4750   -2.9845 H      0
    6.4802   -0.3866   -2.2001 C      0
    7.0793   -1.2948   -2.1998 H      0
    7.1319    0.4491   -2.4462 H      0
    5.7116   -0.1406   -0.6208 S      0
    4.9984   -1.3620   -0.3817 O      0
    2.4425   -0.8424    0.0298 U      3
    2.2703   -2.7160    1.8818 O      0
    3.4484   -3.5339    1.8504 S      0
    3.2017   -4.7068    3.1574 C      0
    2.3698   -5.3697    2.9287 H      0
    2.9831   -4.1995    4.0947 H      0
    4.0912   -5.3166    3.3015 H      0
    4.6967   -2.5328    2.6151 C      0
    4.9844   -2.9455    3.5798 H      0
    4.3351   -1.5192    2.7748 H      0
    5.5859   -2.4809    1.9902 H      0
    1.8944   -0.1211    2.5068 O      0
    0.5194   -0.1479    2.8084 C      0
    0.0867    0.2031    3.8925 O      0
   -0.4403   -0.7130    1.7652 C      0
   -0.4141   -1.8049    1.8635 H      0
   -1.4678   -0.4065    1.9969 H      0
   -0.1108   -0.3234    0.4410 N      0
   -0.3039    1.1083    0.3581 C      0
   -0.1744    1.6197    1.3153 H      0
   -1.3557    1.2858    0.1023 H      0
    0.5639    1.7587   -0.7112 C      0
    0.3365    1.2808   -1.6675 H      0
    0.2734    2.8105   -0.8248 H      0
    1.9728    1.6905   -0.4093 N      0
    2.2847    2.3952    0.7879 C      0
    2.1360    3.4716    0.6371 H      0
    1.6421    2.1061    1.6240 H      0
    3.7277    2.1208    1.2105 C      0
    4.3972    3.0208    1.6873 O      0
    4.2306    0.8089    1.0498 O      0
    2.9467    2.0835   -1.3932 C      0
    2.9028    3.1675   -1.5553 H      0
    3.9782    1.8447   -1.1124 H      0
    2.6533    1.3539   -2.6800 C      0
    1.6529    1.6113   -3.0435 H      0
    3.3459    1.6830   -3.4645 H      0
    2.8030   -0.0510   -2.4737 N      0
    3.7729   -0.3089   -2.7515 H      0
    1.9115   -0.7107   -3.3620 C      0
    0.9864   -0.1520   -3.5263 H      0
    2.3851   -0.7870   -4.3486 H      0
    1.6562   -2.0921   -2.8125 C      0
    1.1448   -2.6851   -3.5807 H      0
    2.6392   -2.5551   -2.6882 H      0
    0.8369   -2.0849   -1.6344 N      0
    0.6024   -3.4249   -1.1715 C      0
   -0.0394   -3.9661   -1.8777 H      0
    0.1079   -3.4606   -0.1965 H      0
    1.9457   -4.1261   -1.0323 C      0
    2.0500   -5.3087   -1.3081 O      0
    3.0304   -3.3499   -0.5700 O      0
   -0.4241   -1.4062   -1.7458 C      0
   -0.3586   -0.4408   -2.2493 H      0
   -1.1254   -2.0119   -2.3329 H      0
   -0.9717   -1.1673   -0.3546 C      0
   -1.1884   -2.1176    0.1407 H      0
   -1.9489   -0.6762   -0.4403 H      0
    7.1558   -0.2704    0.4003 C      0
    7.6886   -1.1973    0.1987 H      0
    6.8856   -0.2569    1.4541 H      0
    7.8354    0.5586    0.2140 H      0
  1  2  1
  2  3  1
  2  4  1
  2  5  1
  5  6  2
  6  7  1
  7  8  1
  8  9  2
  9 10  1
 10 11  1
 10 12  1
 10 13  1
  9 14  1
 14 15  1
 14 16  1
 14 17  1
  7 18  1
 18 19  1
 19 20  2
 19 21  1
 21 22  1
 21 23  1
 21 24  1
  7 24  1
 24 25  1
 25 26  1
 25 27  1
 25 28  1
 28 29  1
 28 30  1
 28 31  1
  7 31  1
 31 32  1
 32 33  1
 32 34  1
 32 35  1
 35 36  2
 35 37  1
  7 37  1
 31 38  1
 38 39  1
 38 40  1
 38 41  1
 41 42  1
 41 43  1
 41 44  1
  7 44  1
 44 45  1
 44 46  1
 46 47  1
 46 48  1
 46 49  1
 49 50  1
 49 51  1
 49 52  1
  7 52  1
 52 53  1
 53 54  1
 53 55  1
 53 56  1
 56 57  2
 56 58  1
  7 58  1
 52 59  1
 59 60  1
 59 61  1
 59 62  1
 24 62  1
 62 63  1
 62 64  1
  5 65  1
 65 66  1
 65 67  1
 65 68  1
M  CHG  1   7   1
M  END
$$$$
