
     RDKit          3D

 26 26  0  0  0  0  0  0  0  0999 V2000
    1.9044   -0.7560    1.0113 C   0  0  0  0  0  0  0  0  0  0  0  0
    3.2167   -0.6706    0.5344 C   0  0  0  0  0  0  0  0  0  0  0  0
    3.4686   -0.0163   -0.6783 C   0  0  0  0  0  0  0  0  0  0  0  0
    4.8444    0.0768   -1.1846 N   0  0  0  0  0  4  0  0  0  0  0  0
    5.0228    0.6639   -2.2611 O   0  0  0  0  0  1  0  0  0  0  0  0
    5.7442   -0.4371   -0.5055 O   0  0  0  0  0  0  0  0  0  0  0  0
    2.4177    0.5503   -1.4127 C   0  0  0  0  0  0  0  0  0  0  0  0
    1.1075    0.4605   -0.9286 C   0  0  0  0  0  0  0  0  0  0  0  0
    0.8431   -0.1926    0.2853 C   0  0  0  0  0  0  0  0  0  0  0  0
   -0.5322   -0.3160    0.8440 C   0  0  0  0  0  0  0  0  0  0  0  0
   -0.7790   -0.8803    1.8973 O   0  0  0  0  0  0  0  0  0  0  0  0
   -1.4327    0.2767    0.0227 O   0  0  0  0  0  0  0  0  0  0  0  0
   -2.8080    0.2255    0.4477 C   0  0  0  0  0  0  0  0  0  0  0  0
   -3.4271   -1.0979    0.0126 C   0  0  0  0  0  0  0  0  0  0  0  0
   -3.5242    1.3985   -0.2102 C   0  0  0  0  0  0  0  0  0  0  0  0
    1.7117   -1.2657    1.9551 H   0  0  0  0  0  0  0  0  0  0  0  0
    4.0215   -1.1158    1.1167 H   0  0  0  0  0  0  0  0  0  0  0  0
    2.5990    1.0615   -2.3566 H   0  0  0  0  0  0  0  0  0  0  0  0
    0.3022    0.9052   -1.5101 H   0  0  0  0  0  0  0  0  0  0  0  0
   -2.8780    0.3416    1.5361 H   0  0  0  0  0  0  0  0  0  0  0  0
   -2.9157   -1.9423    0.4860 H   0  0  0  0  0  0  0  0  0  0  0  0
   -4.4875   -1.1453    0.2785 H   0  0  0  0  0  0  0  0  0  0  0  0
   -3.3289   -1.2389   -1.0694 H   0  0  0  0  0  0  0  0  0  0  0  0
   -3.0602    2.3442    0.0904 H   0  0  0  0  0  0  0  0  0  0  0  0
   -3.4481    1.3445   -1.3019 H   0  0  0  0  0  0  0  0  0  0  0  0
   -4.5822    1.4257    0.0677 H   0  0  0  0  0  0  0  0  0  0  0  0
  1  2  2  0
  2  3  1  0
  3  4  1  0
  4  5  1  0
  4  6  2  0
  3  7  2  0
  7  8  1  0
  8  9  2  0
  9 10  1  0
 10 11  2  0
 10 12  1  0
 12 13  1  0
 13 14  1  0
 13 15  1  0
  9  1  1  0
  1 16  1  0
  2 17  1  0
  7 18  1  0
  8 19  1  0
 13 20  1  0
 14 21  1  0
 14 22  1  0
 14 23  1  0
 15 24  1  0
 15 25  1  0
 15 26  1  0
M  CHG  2   4   1   5  -1
M  END
