
     RDKit          3D

  0  0  0  0  0  0  0  0  0  0999 V3000
M  V30 BEGIN CTAB
M  V30 COUNTS 80 84 0 0 0
M  V30 BEGIN ATOM
M  V30 1 C 1.578800 0.715225 0.042025 0
M  V30 2 Ru 0.755423 -0.633361 -0.879326 0 VAL=6
M  V30 3 Cl 1.481689 0.007382 -2.582537 0
M  V30 4 Cl -0.011300 -1.430931 0.609353 0
M  V30 5 C -0.774880 0.274228 -1.242855 0
M  V30 6 N -2.017083 -0.448968 -0.917797 0
M  V30 7 C -2.559187 -1.573395 -0.238981 0
M  V30 8 C -2.525767 -2.671339 -1.106715 0
M  V30 9 C -2.017176 -2.744091 -2.515165 0
M  V30 10 C -3.008848 -3.918010 -0.692283 0
M  V30 11 C -3.518826 -4.053001 0.582170 0
M  V30 12 C -4.057870 -5.329363 1.135362 0
M  V30 13 C -3.549700 -2.987109 1.418598 0
M  V30 14 C -3.077387 -1.759482 1.018173 0
M  V30 15 C -3.098567 -0.546775 1.858286 0
M  V30 16 C -2.937660 0.469838 -1.607301 0
M  V30 17 C -2.416662 1.818252 -1.132031 0
M  V30 18 N -0.985529 1.589338 -0.822780 0
M  V30 19 C -0.535914 2.821537 -0.270533 0
M  V30 20 C -0.529921 3.254288 1.042729 0
M  V30 21 C -1.093207 2.273834 2.005900 0
M  V30 22 C -0.051899 4.487350 1.420808 0
M  V30 23 C 0.434501 5.307125 0.439069 0
M  V30 24 C 0.939106 6.629747 0.912089 0
M  V30 25 C 0.456498 4.935769 -0.889244 0
M  V30 26 C -0.033056 3.676867 -1.263565 0
M  V30 27 C 0.084044 3.493842 -2.726992 0
M  V30 28 N 2.132054 -1.757372 -0.816563 0
M  V30 29 C 1.756758 -2.981511 -0.084411 0
M  V30 30 C 2.530973 -2.247170 -2.140650 0
M  V30 31 C 3.332997 -1.324411 -0.207034 0 CFG=2
M  V30 32 C 4.412021 -2.397777 -0.163682 0
M  V30 33 C 3.233446 -0.588449 1.051937 0
M  V30 34 C 4.075394 -0.982658 2.103033 0
M  V30 35 C 4.058931 -0.346887 3.327308 0
M  V30 36 C 3.186341 0.704549 3.512111 0
M  V30 37 C 2.383799 1.064569 2.478974 0
M  V30 38 C 2.354055 0.480566 1.257905 0
M  V30 39 H 1.713264 1.788191 -0.017975 0
M  V30 40 H -0.882116 0.366192 -2.397345 0
M  V30 41 H -2.787316 -3.224369 -3.160750 0
M  V30 42 H -1.847679 -1.757450 -2.945600 0
M  V30 43 H -1.133917 -3.415847 -2.569769 0
M  V30 44 H -3.028157 -4.822027 -1.281330 0
M  V30 45 H -4.412491 -5.987659 0.302798 0
M  V30 46 H -4.921073 -5.102826 1.764536 0
M  V30 47 H -3.270050 -5.904519 1.669270 0
M  V30 48 H -3.931275 -2.985993 2.441916 0
M  V30 49 H -3.136930 0.380202 1.288387 0
M  V30 50 H -3.927652 -0.641872 2.598193 0
M  V30 51 H -2.179325 -0.528457 2.478520 0
M  V30 52 H -2.893454 0.376462 -2.694026 0
M  V30 53 H -3.967019 0.399461 -1.271679 0
M  V30 54 H -2.566251 2.508057 -1.959589 0
M  V30 55 H -2.997490 2.168379 -0.281062 0
M  V30 56 H -0.757183 1.247060 1.775314 0
M  V30 57 H -0.669701 2.499203 3.028764 0
M  V30 58 H -2.174109 2.406669 2.117934 0
M  V30 59 H -0.103026 4.702984 2.463915 0
M  V30 60 H 0.959275 7.299295 0.032498 0
M  V30 61 H 1.978366 6.520404 1.265967 0
M  V30 62 H 0.283876 7.032272 1.703612 0
M  V30 63 H 0.869064 5.690244 -1.533862 0
M  V30 64 H -0.369724 4.389187 -3.244366 0
M  V30 65 H -0.284321 2.554181 -3.121688 0
M  V30 66 H 1.165515 3.555961 -2.974655 0
M  V30 67 H 2.327630 -3.860134 -0.428382 0
M  V30 68 H 1.771341 -2.813252 1.005866 0
M  V30 69 H 0.672839 -3.204461 -0.314066 0
M  V30 70 H 3.446010 -1.730804 -2.492696 0
M  V30 71 H 2.780725 -3.317562 -2.069934 0
M  V30 72 H 1.702842 -2.123125 -2.865517 0
M  V30 73 H 3.772836 -0.581587 -0.943681 0
M  V30 74 H 4.234642 -3.138128 0.659149 0
M  V30 75 H 5.384926 -1.922055 0.082349 0
M  V30 76 H 4.534678 -2.851851 -1.144192 0
M  V30 77 H 4.795972 -1.789481 2.069486 0
M  V30 78 H 4.689056 -0.615590 4.162024 0
M  V30 79 H 3.089003 1.274824 4.428920 0
M  V30 80 H 1.682012 1.877578 2.545735 0
M  V30 END ATOM
M  V30 BEGIN BOND
M  V30 1 2 1 2
M  V30 2 1 2 3
M  V30 3 1 2 4
M  V30 4 1 2 5
M  V30 5 1 5 6
M  V30 6 1 6 7
M  V30 7 2 7 8
M  V30 8 1 8 9
M  V30 9 1 8 10
M  V30 10 2 10 11
M  V30 11 1 11 12
M  V30 12 1 11 13
M  V30 13 2 13 14
M  V30 14 1 14 15
M  V30 15 1 6 16
M  V30 16 1 16 17
M  V30 17 1 17 18
M  V30 18 1 18 19
M  V30 19 2 19 20
M  V30 20 1 20 21
M  V30 21 1 20 22
M  V30 22 2 22 23
M  V30 23 1 23 24
M  V30 24 1 23 25
M  V30 25 2 25 26
M  V30 26 1 26 27
M  V30 27 9 28 2
M  V30 28 1 28 29
M  V30 29 1 28 30
M  V30 30 1 28 31
M  V30 31 1 31 32
M  V30 32 1 31 33
M  V30 33 2 33 34
M  V30 34 1 34 35
M  V30 35 2 35 36
M  V30 36 1 36 37
M  V30 37 2 37 38
M  V30 38 1 38 1
M  V30 39 1 18 5
M  V30 40 1 26 19
M  V30 41 1 38 33
M  V30 42 1 14 7
M  V30 43 1 1 39
M  V30 44 1 5 40
M  V30 45 1 9 41
M  V30 46 1 9 42
M  V30 47 1 9 43
M  V30 48 1 10 44
M  V30 49 1 12 45
M  V30 50 1 12 46
M  V30 51 1 12 47
M  V30 52 1 13 48
M  V30 53 1 15 49
M  V30 54 1 15 50
M  V30 55 1 15 51
M  V30 56 1 16 52
M  V30 57 1 16 53
M  V30 58 1 17 54
M  V30 59 1 17 55
M  V30 60 1 21 56
M  V30 61 1 21 57
M  V30 62 1 21 58
M  V30 63 1 22 59
M  V30 64 1 24 60
M  V30 65 1 24 61
M  V30 66 1 24 62
M  V30 67 1 25 63
M  V30 68 1 27 64
M  V30 69 1 27 65
M  V30 70 1 27 66
M  V30 71 1 29 67
M  V30 72 1 29 68
M  V30 73 1 29 69
M  V30 74 1 30 70
M  V30 75 1 30 71
M  V30 76 1 30 72
M  V30 77 1 31 73 CFG=3
M  V30 78 1 32 74
M  V30 79 1 32 75
M  V30 80 1 32 76
M  V30 81 1 34 77
M  V30 82 1 35 78
M  V30 83 1 36 79
M  V30 84 1 37 80
M  V30 END BOND
M  V30 END CTAB
M  END
