
     RDKit          3D

 44 43  0  0  0  0  0  0  0  0999 V2000
    1.3027   -2.2947   -0.3794 C   0  0  0  0  0  0  0  0  0  0  0  0
    1.3703   -0.5989   -0.3723 P   0  0  0  0  0  5  0  0  0  0  0  0
    2.3087    0.2615   -1.6405 C   0  0  0  0  0  0  0  0  0  0  0  0
    2.7243   -0.5857    0.8953 C   0  0  0  0  0  0  0  0  0  0  0  0
   -0.0364    0.4762    0.4013 Pt  0  0  0  0  0  6  0  0  0  0  0  0
    0.1450    1.8486   -0.8446 N   0  0  0  0  0  0  0  0  0  0  0  0
   -0.2112    2.9768   -0.6112 N   0  0  0  0  0  4  0  0  0  0  0  0
   -0.6823    4.0928   -0.4534 N   0  0  0  0  0  2  0  0  0  0  0  0
   -0.2419   -0.6822    1.8306 C   0  0  0  0  0  0  0  0  0  0  0  0
    1.3558    1.4250    1.3033 C   0  0  0  0  0  0  0  0  0  0  0  0
   -1.1778    1.6393    1.4002 C   0  0  0  0  0  0  0  0  0  0  0  0
   -1.5639   -0.1005   -0.5433 P   0  0  0  0  0  5  0  0  0  0  0  0
   -1.4589   -1.8189   -1.0738 C   0  0  0  0  0  0  0  0  0  0  0  0
   -2.8543   -0.4367    0.5843 C   0  0  0  0  0  0  0  0  0  0  0  0
   -1.5977    0.5643   -2.1537 C   0  0  0  0  0  0  0  0  0  0  0  0
    1.1193   -2.7084    0.6462 H   0  0  0  0  0  0  0  0  0  0  0  0
    2.3812   -2.6717   -0.5531 H   0  0  0  0  0  0  0  0  0  0  0  0
    0.8510   -3.0535   -1.0314 H   0  0  0  0  0  0  0  0  0  0  0  0
    0.5380   -0.7202   -1.3441 H   0  0  0  0  0  0  0  0  0  0  0  0
    2.6971   -0.3657   -2.4711 H   0  0  0  0  0  0  0  0  0  0  0  0
    3.2887    0.7235   -1.2943 H   0  0  0  0  0  0  0  0  0  0  0  0
    1.8295    1.2204   -2.0106 H   0  0  0  0  0  0  0  0  0  0  0  0
    3.5441   -1.2319    0.4299 H   0  0  0  0  0  0  0  0  0  0  0  0
    2.2936   -1.0147    1.7650 H   0  0  0  0  0  0  0  0  0  0  0  0
    3.1555    0.3786    0.8647 H   0  0  0  0  0  0  0  0  0  0  0  0
    0.5520   -0.4617    2.5830 H   0  0  0  0  0  0  0  0  0  0  0  0
   -1.1759   -0.4506    2.4314 H   0  0  0  0  0  0  0  0  0  0  0  0
   -0.3606   -1.6959    1.5139 H   0  0  0  0  0  0  0  0  0  0  0  0
    2.0410    1.9133    0.5839 H   0  0  0  0  0  0  0  0  0  0  0  0
    0.9402    2.3659    1.8112 H   0  0  0  0  0  0  0  0  0  0  0  0
    1.7590    0.8837    2.1393 H   0  0  0  0  0  0  0  0  0  0  0  0
   -0.7055    2.6670    1.4894 H   0  0  0  0  0  0  0  0  0  0  0  0
   -2.1062    1.8636    0.8344 H   0  0  0  0  0  0  0  0  0  0  0  0
   -1.3281    1.3298    2.4260 H   0  0  0  0  0  0  0  0  0  0  0  0
   -2.3845    0.9702   -0.5394 H   0  0  0  0  0  0  0  0  0  0  0  0
   -2.4849   -2.2195   -1.3589 H   0  0  0  0  0  0  0  0  0  0  0  0
   -0.9323   -1.9596   -2.0033 H   0  0  0  0  0  0  0  0  0  0  0  0
   -1.2069   -2.3692   -0.1942 H   0  0  0  0  0  0  0  0  0  0  0  0
   -3.8065   -0.9232    0.2027 H   0  0  0  0  0  0  0  0  0  0  0  0
   -2.5114   -1.3361    1.2116 H   0  0  0  0  0  0  0  0  0  0  0  0
   -3.0519    0.1931    1.5048 H   0  0  0  0  0  0  0  0  0  0  0  0
   -0.7255    0.0614   -2.7187 H   0  0  0  0  0  0  0  0  0  0  0  0
   -1.2063    1.6055   -2.3753 H   0  0  0  0  0  0  0  0  0  0  0  0
   -2.3861    0.2390   -2.8862 H   0  0  0  0  0  0  0  0  0  0  0  0
  1  2  1  0
  2  3  1  0
  2  4  1  0
  2  5  1  0
  5  6  1  0
  6  7  2  0
  7  8  2  0
  5  9  1  0
  5 10  1  0
  5 11  1  0
  5 12  1  0
 12 13  1  0
 12 14  1  0
 12 15  1  0
  1 16  1  0
  1 17  1  0
  1 18  1  0
  2 19  1  0
  3 20  1  0
  3 21  1  0
  3 22  1  0
  4 23  1  0
  4 24  1  0
  4 25  1  0
  9 26  1  0
  9 27  1  0
  9 28  1  0
 10 29  1  0
 10 30  1  0
 10 31  1  0
 11 32  1  0
 11 33  1  0
 11 34  1  0
 12 35  1  0
 13 36  1  0
 13 37  1  0
 13 38  1  0
 14 39  1  0
 14 40  1  0
 14 41  1  0
 15 42  1  0
 15 43  1  0
 15 44  1  0
M  CHG  2   7   1   8  -1
M  END
