
 OpenBabel09252516393D

114121  0  0  0  0  0  0  0  0999 V2000
    0.9970   -0.0900    0.0436 C   0  0  0  0  0  0  0  0  0  0  0  0
    0.5237   -1.2949    0.6271 O   0  0  0  0  0  0  0  0  0  0  0  0
    1.1673   -2.4327    0.3140 C   0  0  0  0  0  0  0  0  0  0  0  0
    0.2008   -3.4727   -0.0269 C   0  0  0  0  0  0  0  0  0  0  0  0
   -1.0017   -2.7038   -0.6242 O   0  0  0  0  0  0  0  0  0  0  0  0
   -2.2326   -3.3250   -0.2844 C   0  0  0  0  0  0  0  0  0  0  0  0
   -0.8639   -1.3300    0.0497 Eu  0  0  0  0  0  0  0  0  0  0  0  0
   -0.2792    0.5494   -1.7838 N   0  0  0  0  0  0  0  0  0  0  0  0
    0.9458    0.6527   -2.2525 C   0  0  0  0  0  0  0  0  0  0  0  0
    2.4541    0.7797   -2.8295 S   0  0  0  0  0  0  0  0  0  0  0  0
   -2.2992    0.5795   -1.1872 N   0  0  0  0  0  0  0  0  0  0  0  0
   -1.7255    1.9186   -1.3840 C   0  0  0  0  0  0  0  0  0  0  0  0
   -0.6205    2.0668   -2.0827 C   0  0  0  0  0  0  0  0  0  0  0  0
   -0.1150    3.3508   -2.2549 C   0  0  0  0  0  0  0  0  0  0  0  0
   -1.0362    4.4143   -2.1274 C   0  0  0  0  0  0  0  0  0  0  0  0
   -2.0427    4.2491   -1.1776 C   0  0  0  0  0  0  0  0  0  0  0  0
   -2.3701    3.0253   -0.8204 C   0  0  0  0  0  0  0  0  0  0  0  0
   -3.4610    2.8118    0.2164 C   0  0  0  0  0  0  0  0  0  0  0  0
   -3.0610    3.4855    1.5188 C   0  0  0  0  0  0  0  0  0  0  0  0
   -4.7629    3.4139   -0.2866 C   0  0  0  0  0  0  0  0  0  0  0  0
    0.0861    0.8642   -2.6867 C   0  0  0  0  0  0  0  0  0  0  0  0
    0.1518    1.0210   -4.1972 C   0  0  0  0  0  0  0  0  0  0  0  0
    1.4955    0.7699   -2.1253 C   0  0  0  0  0  0  0  0  0  0  0  0
   -3.6571    0.2839   -1.6664 C   0  0  0  0  0  0  0  0  0  0  0  0
   -4.0787    0.3674   -2.9242 C   0  0  0  0  0  0  0  0  0  0  0  0
   -0.5888   -3.6719    1.3442 N   0  0  0  0  0  0  0  0  0  0  0  0
   -1.4894   -4.0070    2.4567 C   0  0  0  0  0  0  0  0  0  0  0  0
   -2.7843   -4.0790    2.2346 C   0  0  0  0  0  0  0  0  0  0  0  0
   -3.6160   -4.4425    3.2882 C   0  0  0  0  0  0  0  0  0  0  0  0
   -3.0215   -5.1800    4.3364 C   0  0  0  0  0  0  0  0  0  0  0  0
   -1.7030   -4.8547    4.6499 C   0  0  0  0  0  0  0  0  0  0  0  0
   -0.9641   -4.2802    3.7245 C   0  0  0  0  0  0  0  0  0  0  0  0
    0.4765   -3.9092    4.0366 C   0  0  0  0  0  0  0  0  0  0  0  0
    0.5071   -2.9299    5.1988 C   0  0  0  0  0  0  0  0  0  0  0  0
    1.2530   -5.1617    4.4089 C   0  0  0  0  0  0  0  0  0  0  0  0
   -3.3570   -3.7725    0.8604 C   0  0  0  0  0  0  0  0  0  0  0  0
   -4.0872   -4.9962    0.3314 C   0  0  0  0  0  0  0  0  0  0  0  0
   -4.3287   -2.6083    0.9646 C   0  0  0  0  0  0  0  0  0  0  0  0
   -5.4991    0.0063   -3.0060 C   0  0  0  0  0  0  0  0  0  0  0  0
   -6.5173   -0.0970   -4.0684 C   0  0  0  0  0  0  0  0  0  0  0  0
   -7.7457   -0.4683   -3.7512 C   0  0  0  0  0  0  0  0  0  0  0  0
   -8.1411   -0.7866   -2.3614 C   0  0  0  0  0  0  0  0  0  0  0  0
   -7.2356   -0.6947   -1.4172 C   0  0  0  0  0  0  0  0  0  0  0  0
   -7.4424   -0.9701    0.0149 C   0  0  0  0  0  0  0  0  0  0  0  0
   -6.4167   -0.8263    0.8340 C   0  0  0  0  0  0  0  0  0  0  0  0
   -5.0710   -0.4066    0.4094 C   0  0  0  0  0  0  0  0  0  0  0  0
   -4.7985   -0.1487   -0.8452 C   0  0  0  0  0  0  0  0  0  0  0  0
   -5.8927   -0.2821   -1.8073 C   0  0  0  0  0  0  0  0  0  0  0  0
   -1.0913   -0.2137   -0.9312 O   0  0  0  0  0  0  0  0  0  0  0  0
   -1.3255   -0.7576   -2.2219 C   0  0  0  0  0  0  0  0  0  0  0  0
   -2.1592    0.5072   -0.5480 C   0  0  0  0  0  0  0  0  0  0  0  0
   -2.4203    0.2919    0.8719 C   0  0  0  0  0  0  0  0  0  0  0  0
   -1.9311   -1.1506    1.1447 O   0  0  0  0  0  0  0  0  0  0  0  0
   -1.3665   -1.2691    2.4422 C   0  0  0  0  0  0  0  0  0  0  0  0
    0.6404    0.7448    0.6100 H   0  0  0  0  0  0  0  0  0  0  0  0
    0.6404   -0.0168   -0.9626 H   0  0  0  0  0  0  0  0  0  0  0  0
    2.0670   -0.0900    0.0436 H   0  0  0  0  0  0  0  0  0  0  0  0
    1.7470   -2.7524    1.1547 H   0  0  0  0  0  0  0  0  0  0  0  0
    1.8103   -2.2578   -0.5232 H   0  0  0  0  0  0  0  0  0  0  0  0
    0.6021   -4.1931   -0.7087 H   0  0  0  0  0  0  0  0  0  0  0  0
   -0.0938   -4.0160    0.8465 H   0  0  0  0  0  0  0  0  0  0  0  0
   -2.2833   -3.4598    0.7758 H   0  0  0  0  0  0  0  0  0  0  0  0
   -3.0447   -2.7063   -0.6046 H   0  0  0  0  0  0  0  0  0  0  0  0
   -2.2972   -4.2771   -0.7685 H   0  0  0  0  0  0  0  0  0  0  0  0
    0.9181    3.5243   -2.4726 H   0  0  0  0  0  0  0  0  0  0  0  0
   -0.9652    5.2977   -2.7269 H   0  0  0  0  0  0  0  0  0  0  0  0
   -2.5369    5.0960   -0.7494 H   0  0  0  0  0  0  0  0  0  0  0  0
   -3.5940    1.7633    0.3834 H   0  0  0  0  0  0  0  0  0  0  0  0
   -2.9280    4.5340    1.3518 H   0  0  0  0  0  0  0  0  0  0  0  0
   -3.8290    3.3352    2.2486 H   0  0  0  0  0  0  0  0  0  0  0  0
   -2.1446    3.0617    1.8729 H   0  0  0  0  0  0  0  0  0  0  0  0
   -5.0444    2.9395   -1.2035 H   0  0  0  0  0  0  0  0  0  0  0  0
   -5.5308    3.2635    0.4432 H   0  0  0  0  0  0  0  0  0  0  0  0
   -4.6298    4.4623   -0.4536 H   0  0  0  0  0  0  0  0  0  0  0  0
   -0.4549   -0.0265   -2.4438 H   0  0  0  0  0  0  0  0  0  0  0  0
    0.6928    1.9117   -4.4401 H   0  0  0  0  0  0  0  0  0  0  0  0
    0.6492    0.1745   -4.6224 H   0  0  0  0  0  0  0  0  0  0  0  0
   -0.8403    1.0874   -4.5924 H   0  0  0  0  0  0  0  0  0  0  0  0
    1.4492    0.6595   -1.0621 H   0  0  0  0  0  0  0  0  0  0  0  0
    1.9929   -0.0767   -2.5506 H   0  0  0  0  0  0  0  0  0  0  0  0
    2.0364    1.6605   -2.3682 H   0  0  0  0  0  0  0  0  0  0  0  0
   -4.6525   -4.1774    3.3042 H   0  0  0  0  0  0  0  0  0  0  0  0
   -3.5540   -5.9459    4.8605 H   0  0  0  0  0  0  0  0  0  0  0  0
   -1.3015   -5.0666    5.6188 H   0  0  0  0  0  0  0  0  0  0  0  0
    0.9224   -3.4556    3.1762 H   0  0  0  0  0  0  0  0  0  0  0  0
    0.0612   -3.3835    6.0592 H   0  0  0  0  0  0  0  0  0  0  0  0
    1.5212   -2.6688    5.4185 H   0  0  0  0  0  0  0  0  0  0  0  0
   -0.0395   -2.0482    4.9367 H   0  0  0  0  0  0  0  0  0  0  0  0
    1.2315   -5.8510    3.5908 H   0  0  0  0  0  0  0  0  0  0  0  0
    2.2671   -4.9005    4.6286 H   0  0  0  0  0  0  0  0  0  0  0  0
    0.8071   -5.6153    5.2693 H   0  0  0  0  0  0  0  0  0  0  0  0
   -2.5621   -3.5150    0.1921 H   0  0  0  0  0  0  0  0  0  0  0  0
   -4.8822   -5.2538    0.9997 H   0  0  0  0  0  0  0  0  0  0  0  0
   -4.4904   -4.7804   -0.6360 H   0  0  0  0  0  0  0  0  0  0  0  0
   -3.4032   -5.8157    0.2580 H   0  0  0  0  0  0  0  0  0  0  0  0
   -3.8146   -1.7470    1.3370 H   0  0  0  0  0  0  0  0  0  0  0  0
   -4.7318   -2.3926   -0.0028 H   0  0  0  0  0  0  0  0  0  0  0  0
   -5.1236   -2.8659    1.6329 H   0  0  0  0  0  0  0  0  0  0  0  0
   -6.2646    0.1261   -5.0839 H   0  0  0  0  0  0  0  0  0  0  0  0
   -8.4795   -0.5412   -4.5264 H   0  0  0  0  0  0  0  0  0  0  0  0
   -9.1428   -1.0849   -2.1320 H   0  0  0  0  0  0  0  0  0  0  0  0
   -8.3989   -1.2786    0.3820 H   0  0  0  0  0  0  0  0  0  0  0  0
   -6.5737   -1.0278    1.8730 H   0  0  0  0  0  0  0  0  0  0  0  0
   -4.2979   -0.3100    1.1428 H   0  0  0  0  0  0  0  0  0  0  0  0
   -2.1893   -1.3883   -2.1918 H   0  0  0  0  0  0  0  0  0  0  0  0
   -1.4882    0.0371   -2.9196 H   0  0  0  0  0  0  0  0  0  0  0  0
   -0.4753   -1.3313   -2.5267 H   0  0  0  0  0  0  0  0  0  0  0  0
   -3.0135    0.1994   -1.1139 H   0  0  0  0  0  0  0  0  0  0  0  0
   -1.9664    1.5456   -0.7198 H   0  0  0  0  0  0  0  0  0  0  0  0
   -3.4530    0.4235    1.1190 H   0  0  0  0  0  0  0  0  0  0  0  0
   -1.8751    0.9945    1.4670 H   0  0  0  0  0  0  0  0  0  0  0  0
   -0.5320   -0.6051    2.5301 H   0  0  0  0  0  0  0  0  0  0  0  0
   -2.1028   -1.0157    3.1761 H   0  0  0  0  0  0  0  0  0  0  0  0
   -1.0392   -2.2758    2.5982 H   0  0  0  0  0  0  0  0  0  0  0  0
  1  2  1  0  0  0  0
  1 55  1  0  0  0  0
  1 56  1  0  0  0  0
  1 57  1  0  0  0  0
  2  3  1  0  0  0  0
  2  7  1  0  0  0  0
  3  4  1  0  0  0  0
  3 58  1  0  0  0  0
  3 59  1  0  0  0  0
  4  5  1  0  0  0  0
  4 60  1  0  0  0  0
  4 61  1  0  0  0  0
  5  6  1  0  0  0  0
  5  7  1  0  0  0  0
  6 62  1  0  0  0  0
  6 63  1  0  0  0  0
  6 64  1  0  0  0  0
  7  8  1  0  0  0  0
  7 11  1  0  0  0  0
  7 26  1  0  0  0  0
  7 49  1  0  0  0  0
  7 53  1  0  0  0  0
  8  9  2  0  0  0  0
  9 10  2  0  0  0  0
 11 12  1  0  0  0  0
 11 24  1  0  0  0  0
 12 13  1  0  0  0  0
 12 17  2  0  0  0  0
 13 14  2  0  0  0  0
 13 21  1  0  0  0  0
 14 15  1  0  0  0  0
 14 65  1  0  0  0  0
 15 16  2  0  0  0  0
 15 66  1  0  0  0  0
 16 17  1  0  0  0  0
 16 67  1  0  0  0  0
 17 18  1  0  0  0  0
 18 19  1  0  0  0  0
 18 20  1  0  0  0  0
 18 68  1  0  0  0  0
 19 69  1  0  0  0  0
 19 70  1  0  0  0  0
 19 71  1  0  0  0  0
 20 72  1  0  0  0  0
 20 73  1  0  0  0  0
 20 74  1  0  0  0  0
 21 22  1  0  0  0  0
 21 23  1  0  0  0  0
 21 75  1  0  0  0  0
 22 76  1  0  0  0  0
 22 77  1  0  0  0  0
 22 78  1  0  0  0  0
 23 79  1  0  0  0  0
 23 80  1  0  0  0  0
 23 81  1  0  0  0  0
 24 25  2  0  0  0  0
 24 47  1  0  0  0  0
 25 26  1  0  0  0  0
 25 39  1  0  0  0  0
 26 27  1  0  0  0  0
 27 28  1  0  0  0  0
 27 32  2  0  0  0  0
 28 29  2  0  0  0  0
 28 36  1  0  0  0  0
 29 30  1  0  0  0  0
 29 82  1  0  0  0  0
 30 31  2  0  0  0  0
 30 83  1  0  0  0  0
 31 32  1  0  0  0  0
 31 84  1  0  0  0  0
 32 33  1  0  0  0  0
 33 34  1  0  0  0  0
 33 35  1  0  0  0  0
 33 85  1  0  0  0  0
 34 86  1  0  0  0  0
 34 87  1  0  0  0  0
 34 88  1  0  0  0  0
 35 89  1  0  0  0  0
 35 90  1  0  0  0  0
 35 91  1  0  0  0  0
 36 37  1  0  0  0  0
 36 38  1  0  0  0  0
 36 92  1  0  0  0  0
 37 93  1  0  0  0  0
 37 94  1  0  0  0  0
 37 95  1  0  0  0  0
 38 96  1  0  0  0  0
 38 97  1  0  0  0  0
 38 98  1  0  0  0  0
 39 40  1  0  0  0  0
 39 48  2  0  0  0  0
 40 41  2  0  0  0  0
 40 99  1  0  0  0  0
 41 42  1  0  0  0  0
 41100  1  0  0  0  0
 42 43  2  0  0  0  0
 42101  1  0  0  0  0
 43 44  1  0  0  0  0
 43 48  1  0  0  0  0
 44 45  2  0  0  0  0
 44102  1  0  0  0  0
 45 46  1  0  0  0  0
 45103  1  0  0  0  0
 46 47  2  0  0  0  0
 46104  1  0  0  0  0
 47 48  1  0  0  0  0
 49 50  1  0  0  0  0
 49 51  1  0  0  0  0
 50105  1  0  0  0  0
 50106  1  0  0  0  0
 50107  1  0  0  0  0
 51 52  1  0  0  0  0
 51108  1  0  0  0  0
 51109  1  0  0  0  0
 52 53  1  0  0  0  0
 52110  1  0  0  0  0
 52111  1  0  0  0  0
 53 54  1  0  0  0  0
 54112  1  0  0  0  0
 54113  1  0  0  0  0
 54114  1  0  0  0  0
M  END
$$$$
