
     RDKit          3D

 28 28  0  0  0  0  0  0  0  0999 V2000
    0.4234   -2.9496   -0.4168 C   0  0  0  0  0  0  0  0  0  0  0  0
   -0.4778   -2.7132    0.7863 C   0  0  0  0  0  0  0  0  0  0  0  0
   -0.7421   -1.2360    1.0588 C   0  0  0  0  0  0  0  0  0  0  0  0
    0.3342   -0.5961    1.8167 C   0  0  0  0  0  0  0  0  0  0  0  0
    1.0675    0.4765    1.4719 C   0  0  0  0  0  0  0  0  0  0  0  0
    0.9735    1.2612    0.2357 C   0  0  0  0  0  0  0  0  0  0  0  0
    1.2571    0.6971   -1.0141 C   0  0  0  0  0  0  0  0  0  0  0  0
    1.1692    1.4709   -2.1734 C   0  0  0  0  0  0  0  0  0  0  0  0
    0.8078    2.8093   -2.0791 C   0  0  0  0  0  0  0  0  0  0  0  0
    0.7259    3.5499   -3.1919 F   0  0  0  0  0  0  0  0  0  0  0  0
    0.5375    3.3901   -0.8469 C   0  0  0  0  0  0  0  0  0  0  0  0
    0.6278    2.6172    0.3126 C   0  0  0  0  0  0  0  0  0  0  0  0
   -1.9028   -0.6140    0.7274 C   0  0  0  0  0  0  0  0  0  0  0  0
   -2.2084    0.7152    1.1482 C   0  0  0  0  0  0  0  0  0  0  0  0
   -2.4867    1.7824    1.5123 N   0  0  0  0  0  0  0  0  0  0  0  0
   -2.9129   -1.2849   -0.0228 C   0  0  0  0  0  0  0  0  0  0  0  0
   -3.7228   -1.8507   -0.6320 N   0  0  0  0  0  0  0  0  0  0  0  0
    1.4271   -2.5477   -0.2470 H   0  0  0  0  0  0  0  0  0  0  0  0
    0.5256   -4.0236   -0.6045 H   0  0  0  0  0  0  0  0  0  0  0  0
    0.0107   -2.4877   -1.3197 H   0  0  0  0  0  0  0  0  0  0  0  0
   -1.4141   -3.2614    0.6324 H   0  0  0  0  0  0  0  0  0  0  0  0
   -0.0256   -3.1790    1.6718 H   0  0  0  0  0  0  0  0  0  0  0  0
    0.5688   -1.0768    2.7683 H   0  0  0  0  0  0  0  0  0  0  0  0
    1.8240    0.8358    2.1691 H   0  0  0  0  0  0  0  0  0  0  0  0
    1.5640   -0.3408   -1.0970 H   0  0  0  0  0  0  0  0  0  0  0  0
    1.3870    1.0414   -3.1460 H   0  0  0  0  0  0  0  0  0  0  0  0
    0.2565    4.4369   -0.7938 H   0  0  0  0  0  0  0  0  0  0  0  0
    0.4056    3.0779    1.2735 H   0  0  0  0  0  0  0  0  0  0  0  0
  1  2  1  0
  2  3  1  0
  3  4  1  0
  4  5  2  3
  5  6  1  0
  6  7  2  0
  7  8  1  0
  8  9  2  0
  9 10  1  0
  9 11  1  0
 11 12  2  0
  3 13  2  3
 13 14  1  0
 14 15  3  0
 13 16  1  0
 16 17  3  0
 12  6  1  0
  1 18  1  0
  1 19  1  0
  1 20  1  0
  2 21  1  0
  2 22  1  0
  4 23  1  0
  5 24  1  0
  7 25  1  0
  8 26  1  0
 11 27  1  0
 12 28  1  0
M  END
