
  --CCDC--092525    3D                              

 46 54  0  0  0  0  0  0  0  0999 V2000
    1.8863   -0.6599   -0.1427 Cl     0
    1.9543    1.7389   -0.1059 Ir     0
    1.5789    1.2307    1.9025 C      0
    0.4245    1.3916    1.2426 C      0
   -1.0537    1.3348    1.1353 C      0
   -2.1604    1.3315    1.9466 C      0
   -3.3992    1.1545    1.3379 C      0
   -3.5305    0.9452   -0.0126 C      0
   -2.3944    0.9050   -0.8616 C      0
   -2.3807    0.6255   -2.2453 C      0
   -1.1853    0.5569   -2.9022 C      0
    0.0295    0.7976   -2.2687 C      0
    0.0861    1.1587   -0.9246 C      0
   -1.1503    1.1461   -0.2503 C      0
    3.6891    1.6448   -1.0312 C      0
    4.4417    0.3673   -1.3303 C      0
    3.7601    2.4643    0.2514 C      0
    4.6179    2.1334    1.4526 C      0
    2.6829    3.5534    0.1916 C      0
    2.2977    4.4760    1.3266 C      0
    1.9294    3.4130   -1.1254 C      0
    0.7019    4.1887   -1.5494 C      0
    2.6353    2.3076   -1.9191 C      0
    3.4557    3.2030   -2.8206 C      0
    2.0302    0.9472    2.8475 H      0
   -2.0731    1.4623    3.0202 H      0
   -4.2923    1.1728    1.9538 H      0
   -4.5184    0.7959   -0.4357 H      0
   -3.3093    0.4476   -2.7775 H      0
   -1.1831    0.3058   -3.9577 H      0
    0.9414    0.7024   -2.8467 H      0
    4.6719   -0.1689   -0.4120 H      0
    5.3781    0.5823   -1.8409 H      0
    3.8518   -0.2884   -1.9673 H      0
    5.6237    1.8574    1.1431 H      0
    4.1965    1.3015    2.0128 H      0
    4.6922    2.9889    2.1207 H      0
    1.8849    5.4070    0.9437 H      0
    1.5496    4.0107    1.9649 H      0
    3.1641    4.7161    1.9394 H      0
   -0.1987    3.7508   -1.1243 H      0
    0.6005    4.1879   -2.6326 H      0
    0.7653    5.2224   -1.2159 H      0
    3.2938    4.2504   -2.5747 H      0
    4.5172    2.9898   -2.7134 H      0
    3.1837    3.0538   -3.8634 H      0
  1  2  1
  2  3  1
  3  4  2
  2  4  1
  4  5  1
  5  6  4
  6  7  4
  7  8  4
  8  9  4
  9 10  4
 10 11  4
 11 12  4
 12 13  4
  2 13  1
 13 14  4
  5 14  4
  9 14  4
  2 15  1
 15 16  1
 15 17  4
  2 17  1
 17 18  1
 17 19  4
  2 19  1
 19 20  1
 19 21  4
  2 21  1
 21 22  1
 21 23  4
  2 23  1
 15 23  4
 23 24  1
  3 25  1
  6 26  1
  7 27  1
  8 28  1
 10 29  1
 11 30  1
 12 31  1
 16 32  1
 16 33  1
 16 34  1
 18 35  1
 18 36  1
 18 37  1
 20 38  1
 20 39  1
 20 40  1
 22 41  1
 22 42  1
 22 43  1
 24 44  1
 24 45  1
 24 46  1
M  END
$$$$
