
     RDKit          3D

 46 54  0  0  0  0  0  0  0  0999 V2000
   -0.7638    0.7966    2.2061 Cl  0  0  0  0  0  0  0  0  0  0  0  0
   -0.4290    0.6427    0.0444 Ir  0  0  0  0  0  9  0  0  0  0  0  0
    0.4925    2.3507    0.2097 C   0  0  0  0  0  0  0  0  0  0  0  0
    1.0479    1.4491    0.8277 C   0  0  0  0  0  0  0  0  0  0  0  0
    2.0761    0.7166    1.7064 C   0  0  0  0  0  0  0  0  0  0  0  0
    3.0069    0.8679    2.7168 C   0  0  0  0  0  0  0  0  0  0  0  0
    3.9816   -0.0778    2.7666 C   0  0  0  0  0  0  0  0  0  0  0  0
    4.0355   -1.1046    1.8709 C   0  0  0  0  0  0  0  0  0  0  0  0
    3.0613   -1.1651    0.9189 C   0  0  0  0  0  0  0  0  0  0  0  0
    3.4572   -2.1464   -0.0336 C   0  0  0  0  0  0  0  0  0  0  0  0
    2.7108   -2.2464   -1.2178 C   0  0  0  0  0  0  0  0  0  0  0  0
    1.6476   -1.3551   -1.2891 C   0  0  0  0  0  0  0  0  0  0  0  0
    1.1331   -0.3384   -0.4138 C   0  0  0  0  0  0  0  0  0  0  0  0
    1.9530   -0.2867    0.7227 C   0  0  0  0  0  0  0  0  0  0  0  0
   -1.3752    1.0222   -1.3456 C   0  0  0  0  0  0  0  0  0  0  0  0
   -1.0195    1.5980   -2.5909 C   0  0  0  0  0  0  0  0  0  0  0  0
   -1.8772    1.5331   -0.2077 C   0  0  0  0  0  0  0  0  0  0  0  0
   -2.5255    2.7549   -0.0668 C   0  0  0  0  0  0  0  0  0  0  0  0
   -2.0904    0.4295    0.6945 C   0  0  0  0  0  0  0  0  0  0  0  0
   -3.4317    0.0707    0.5501 C   0  0  0  0  0  0  0  0  0  0  0  0
   -1.2528   -0.6371    0.4000 C   0  0  0  0  0  0  0  0  0  0  0  0
   -1.2701   -2.0307    0.7964 C   0  0  0  0  0  0  0  0  0  0  0  0
   -1.3084   -0.2887   -0.9896 C   0  0  0  0  0  0  0  0  0  0  0  0
   -1.5393   -1.3602   -1.8677 C   0  0  0  0  0  0  0  0  0  0  0  0
    0.7142    3.4692    0.0443 H   0  0  0  0  0  0  0  0  0  0  0  0
    2.7407    1.7464    3.2775 H   0  0  0  0  0  0  0  0  0  0  0  0
    4.6398    0.1356    3.5871 H   0  0  0  0  0  0  0  0  0  0  0  0
    4.8501   -1.7803    2.0024 H   0  0  0  0  0  0  0  0  0  0  0  0
    4.2732   -2.8451    0.0276 H   0  0  0  0  0  0  0  0  0  0  0  0
    2.8178   -2.8815   -2.0587 H   0  0  0  0  0  0  0  0  0  0  0  0
    1.0824   -1.3877   -2.2040 H   0  0  0  0  0  0  0  0  0  0  0  0
   -0.1456    2.3060   -2.4645 H   0  0  0  0  0  0  0  0  0  0  0  0
   -1.8219    2.2384   -2.9967 H   0  0  0  0  0  0  0  0  0  0  0  0
   -0.6339    0.8401   -3.2949 H   0  0  0  0  0  0  0  0  0  0  0  0
   -2.8848    2.9399    0.9649 H   0  0  0  0  0  0  0  0  0  0  0  0
   -1.8398    3.6342   -0.2676 H   0  0  0  0  0  0  0  0  0  0  0  0
   -3.3015    2.8545   -0.8531 H   0  0  0  0  0  0  0  0  0  0  0  0
   -3.7742   -0.1260   -0.4835 H   0  0  0  0  0  0  0  0  0  0  0  0
   -3.7190   -0.8557    1.1230 H   0  0  0  0  0  0  0  0  0  0  0  0
   -4.1096    0.8544    0.9405 H   0  0  0  0  0  0  0  0  0  0  0  0
   -1.4276   -2.2017    1.8704 H   0  0  0  0  0  0  0  0  0  0  0  0
   -2.0573   -2.5001    0.1550 H   0  0  0  0  0  0  0  0  0  0  0  0
   -0.3173   -2.5327    0.5265 H   0  0  0  0  0  0  0  0  0  0  0  0
   -2.6064   -1.6601   -1.8486 H   0  0  0  0  0  0  0  0  0  0  0  0
   -1.1952   -1.1409   -2.8968 H   0  0  0  0  0  0  0  0  0  0  0  0
   -1.0046   -2.3021   -1.5593 H   0  0  0  0  0  0  0  0  0  0  0  0
  1  2  1  0
  2  3  1  0
  3  4  2  0
  4  5  1  0
  5  6  2  0
  6  7  1  0
  7  8  2  0
  8  9  1  0
  9 10  2  0
 10 11  1  0
 11 12  2  0
 12 13  1  0
 13 14  2  0
  2 15  1  0
 15 16  1  0
 15 17  1  0
 17 18  1  0
 17 19  1  0
 19 20  1  0
 19 21  1  0
 21 22  1  0
 21 23  1  0
 23 24  1  0
  4  2  1  0
 14  5  1  0
 23 15  1  0
 13  2  1  0
 17  2  1  0
 19  2  1  0
 21  2  1  0
 23  2  1  0
 14  9  1  0
  3 25  1  0
  6 26  1  0
  7 27  1  0
  8 28  1  0
 10 29  1  0
 11 30  1  0
 12 31  1  0
 16 32  1  0
 16 33  1  0
 16 34  1  0
 18 35  1  0
 18 36  1  0
 18 37  1  0
 20 38  1  0
 20 39  1  0
 20 40  1  0
 22 41  1  0
 22 42  1  0
 22 43  1  0
 24 44  1  0
 24 45  1  0
 24 46  1  0
M  END
