
     RDKit          3D

 42 41  0  0  0  0  0  0  0  0999 V2000
    1.3488    2.0857   -0.8649 C   0  0  0  0  0  0  0  0  0  0  0  0
    0.0242    0.6639   -0.6134 Pt  0  0  0  0  0  6  0  0  0  0  0  0
    0.3283   -0.5090   -2.1027 C   0  0  0  0  0  0  0  0  0  0  0  0
   -1.2315    1.6610   -1.7197 C   0  0  0  0  0  0  0  0  0  0  0  0
   -0.3507    1.4832    0.7815 N   0  0  0  0  0  0  0  0  0  0  0  0
   -0.5760    2.4093    1.4484 N   0  0  0  0  0  4  0  0  0  0  0  0
   -1.2856    3.3731    1.7386 N   0  0  0  0  0  2  0  0  0  0  0  0
    1.4002   -0.3020    0.3981 P   0  0  0  0  0  4  0  0  0  0  0  0
    3.0847   -0.4359   -0.4887 C   0  0  0  0  0  0  0  0  0  0  0  0
    1.2862   -2.1050    0.5885 C   0  0  0  0  0  0  0  0  0  0  0  0
    1.9919    0.2665    1.9848 C   0  0  0  0  0  0  0  0  0  0  0  0
   -1.4184   -0.3571    0.3525 P   0  0  0  0  0  4  0  0  0  0  0  0
   -3.1675    0.3289    0.2682 C   0  0  0  0  0  0  0  0  0  0  0  0
   -1.3780   -0.9216    2.0766 C   0  0  0  0  0  0  0  0  0  0  0  0
   -1.7736   -1.9403   -0.4844 C   0  0  0  0  0  0  0  0  0  0  0  0
    2.1507    2.2938   -0.2123 H   0  0  0  0  0  0  0  0  0  0  0  0
    1.0039    3.1063   -1.1098 H   0  0  0  0  0  0  0  0  0  0  0  0
    1.8883    1.8718   -1.8388 H   0  0  0  0  0  0  0  0  0  0  0  0
   -0.5462   -0.7183   -2.8015 H   0  0  0  0  0  0  0  0  0  0  0  0
    1.1021   -0.2306   -2.7935 H   0  0  0  0  0  0  0  0  0  0  0  0
    0.4477   -1.5960   -1.9183 H   0  0  0  0  0  0  0  0  0  0  0  0
   -1.7162    2.4974   -1.2579 H   0  0  0  0  0  0  0  0  0  0  0  0
   -0.8436    2.0846   -2.6551 H   0  0  0  0  0  0  0  0  0  0  0  0
   -2.0849    1.0775   -2.0942 H   0  0  0  0  0  0  0  0  0  0  0  0
    3.7878   -0.8845    0.1780 H   0  0  0  0  0  0  0  0  0  0  0  0
    3.3376    0.6394   -0.7148 H   0  0  0  0  0  0  0  0  0  0  0  0
    2.9088   -0.9359   -1.4560 H   0  0  0  0  0  0  0  0  0  0  0  0
    1.1351   -2.6595   -0.3309 H   0  0  0  0  0  0  0  0  0  0  0  0
    2.2480   -2.4359    1.0152 H   0  0  0  0  0  0  0  0  0  0  0  0
    0.5470   -2.4490    1.3253 H   0  0  0  0  0  0  0  0  0  0  0  0
    2.9835    0.7304    2.0367 H   0  0  0  0  0  0  0  0  0  0  0  0
    1.9956   -0.5053    2.7803 H   0  0  0  0  0  0  0  0  0  0  0  0
    1.3175    1.0695    2.4257 H   0  0  0  0  0  0  0  0  0  0  0  0
   -3.1744    1.3284    0.7225 H   0  0  0  0  0  0  0  0  0  0  0  0
   -3.4866    0.3344   -0.8126 H   0  0  0  0  0  0  0  0  0  0  0  0
   -3.7724   -0.4220    0.7337 H   0  0  0  0  0  0  0  0  0  0  0  0
   -1.5109   -1.9657    2.2674 H   0  0  0  0  0  0  0  0  0  0  0  0
   -0.3675   -0.6248    2.4731 H   0  0  0  0  0  0  0  0  0  0  0  0
   -2.0480   -0.3307    2.7496 H   0  0  0  0  0  0  0  0  0  0  0  0
   -2.8168   -2.2501   -0.4457 H   0  0  0  0  0  0  0  0  0  0  0  0
   -1.2345   -2.8058   -0.0604 H   0  0  0  0  0  0  0  0  0  0  0  0
   -1.5348   -1.9202   -1.5689 H   0  0  0  0  0  0  0  0  0  0  0  0
  1  2  1  0
  2  3  1  0
  2  4  1  0
  2  5  1  0
  5  6  2  0
  6  7  2  0
  2  8  1  0
  8  9  1  0
  8 10  1  0
  8 11  1  0
  2 12  1  0
 12 13  1  0
 12 14  1  0
 12 15  1  0
  1 16  1  0
  1 17  1  0
  1 18  1  0
  3 19  1  0
  3 20  1  0
  3 21  1  0
  4 22  1  0
  4 23  1  0
  4 24  1  0
  9 25  1  0
  9 26  1  0
  9 27  1  0
 10 28  1  0
 10 29  1  0
 10 30  1  0
 11 31  1  0
 11 32  1  0
 11 33  1  0
 13 34  1  0
 13 35  1  0
 13 36  1  0
 14 37  1  0
 14 38  1  0
 14 39  1  0
 15 40  1  0
 15 41  1  0
 15 42  1  0
M  CHG  2   6   1   7  -1
M  RAD  2   8   2  12   2
M  END
