
 OpenBabel09252516483D

 48 56  0  0  1  0  0  0  0  0999 V2000
    1.0351   -0.0870   -0.0347 H   0  0  0  0  0  0  0  0  0  0  0  0
    2.1051   -0.0870   -0.0347 C   0  0  0  0  0  3  0  0  0  0  0  0
    2.6117    0.7499    1.1286 C   0  0  0  0  0  3  0  0  0  0  0  0
    3.6817    0.7499    1.1286 H   0  0  0  0  0  0  0  0  0  0  0  0
    2.1051    2.1758    0.9855 C   0  0  0  0  0  3  0  0  0  0  0  0
    2.8885    2.8237   -0.1372 C   0  0  0  0  0  3  0  0  0  0  0  0
    2.2688    2.3475   -1.4588 C   0  0  0  0  0  3  0  0  0  0  0  0
    2.3100    0.8295   -1.5246 C   0  0  0  0  0  3  0  0  0  0  0  0
    1.7558    0.4218   -0.7051 H   0  0  0  0  0  0  0  0  0  0  0  0
    1.6958    0.3622   -2.8341 C   0  0  0  0  0  3  0  0  0  0  0  0
    2.2500    0.7699   -3.6535 H   0  0  0  0  0  0  0  0  0  0  0  0
    1.7370   -1.1558   -2.8998 C   0  0  0  0  0  3  0  0  0  0  0  0
    2.1928   -1.6762   -3.7161 H   0  0  0  0  0  0  0  0  0  0  0  0
    4.3471    2.4022   -0.0647 C   0  0  0  0  0  3  0  0  0  0  0  0
    2.6117    0.5020   -1.3411 C   0  0  0  0  0  3  0  0  0  0  0  0
    3.1377   -0.2072   -1.9455 H   0  0  0  0  0  0  0  0  0  0  0  0
    0.8156    2.8261   -1.5237 Ir  0  0  0  0  0  0  0  0  0  0  0  0
    2.4154    4.6094   -1.1169 Cl  0  0  0  0  0  0  0  0  0  0  0  0
    0.0554    2.4018   -0.3014 C   0  0  0  0  0  0  0  0  0  0  0  0
    0.1592    1.3737   -0.5793 H   0  0  0  0  0  0  0  0  0  0  0  0
    0.4030    1.4736    0.1018 H   0  0  0  0  0  0  0  0  0  0  0  0
    0.6378    2.1103    0.8490 C   0  0  1  0  0  0  0  0  0  0  0  0
    1.2798    1.7993    1.6465 H   0  0  0  0  0  0  0  0  0  0  0  0
    0.6406    4.3080   -4.0982 C   0  0  2  0  0  0  0  0  0  0  0  0
    0.1825    5.0725   -5.3295 C   0  0  0  0  0  0  0  0  0  0  0  0
   -0.7521    5.5516   -5.1248 H   0  0  0  0  0  0  0  0  0  0  0  0
    0.9138    5.8111   -5.5835 H   0  0  0  0  0  0  0  0  0  0  0  0
    0.0632    4.3927   -6.1472 H   0  0  0  0  0  0  0  0  0  0  0  0
    1.3213    4.9712   -2.8971 C   0  0  2  0  0  0  0  0  0  0  0  0
    2.0605    6.2262   -3.3318 C   0  0  0  0  0  0  0  0  0  0  0  0
    2.0944    6.2683   -4.4005 H   0  0  0  0  0  0  0  0  0  0  0  0
    1.5502    7.0888   -2.9570 H   0  0  0  0  0  0  0  0  0  0  0  0
    3.0574    6.2049   -2.9438 H   0  0  0  0  0  0  0  0  0  0  0  0
    0.7918    4.3356   -1.6313 C   0  0  2  0  0  0  0  0  0  0  0  0
    0.7071    5.4850   -0.6402 C   0  0  0  0  0  0  0  0  0  0  0  0
    1.4250    6.2343   -0.9013 H   0  0  0  0  0  0  0  0  0  0  0  0
   -0.2755    5.9076   -0.6675 H   0  0  0  0  0  0  0  0  0  0  0  0
    0.9122    5.1225    0.3454 H   0  0  0  0  0  0  0  0  0  0  0  0
    0.1473    2.2416   -2.7735 C   0  0  2  0  0  0  0  0  0  0  0  0
   -0.7193    1.0423   -3.1216 C   0  0  0  0  0  0  0  0  0  0  0  0
   -1.6631    1.3810   -3.4950 H   0  0  0  0  0  0  0  0  0  0  0  0
   -0.2304    0.4536   -3.8695 H   0  0  0  0  0  0  0  0  0  0  0  0
   -0.8747    0.4484   -2.2453 H   0  0  0  0  0  0  0  0  0  0  0  0
    0.8381    2.7928   -4.0214 C   0  0  2  0  0  0  0  0  0  0  0  0
    1.2933    2.2964   -5.3840 C   0  0  0  0  0  0  0  0  0  0  0  0
    1.5312    1.2549   -5.3233 H   0  0  0  0  0  0  0  0  0  0  0  0
    0.5087    2.4421   -6.0969 H   0  0  0  0  0  0  0  0  0  0  0  0
    2.1603    2.8430   -5.6912 H   0  0  0  0  0  0  0  0  0  0  0  0
  1  2  1  0  0  0  0
  2  3  1  0  0  0  0
  2 15  1  0  0  0  0
  3  5  1  0  0  0  0
  3  4  1  0  0  0  0
  5  6  1  0  0  0  0
  5 22  1  0  0  0  0
  6  7  1  0  0  0  0
  6 14  1  0  0  0  0
  7  8  1  0  0  0  0
  7 17  1  0  0  0  0
  8 10  1  0  0  0  0
  8  9  1  0  0  0  0
 10 12  1  0  0  0  0
 10 11  1  0  0  0  0
 12 14  1  0  0  0  0
 12 13  1  0  0  0  0
 14 15  1  0  0  0  0
 15 16  1  0  0  0  0
 17 19  1  0  0  0  0
 17 22  1  0  0  0  0
 17 24  1  0  0  0  0
 17 29  1  0  0  0  0
 17 34  1  0  0  0  0
 17 39  1  0  0  0  0
 17 44  1  0  0  0  0
 17 18  1  0  0  0  0
 19 22  2  0  0  0  0
 19 20  1  0  0  0  0
 19 21  1  0  0  0  0
 22 23  1  1  0  0  0
 24 29  1  0  0  0  0
 24 44  1  0  0  0  0
 24 25  1  1  0  0  0
 25 26  1  0  0  0  0
 25 27  1  0  0  0  0
 25 28  1  0  0  0  0
 29 34  1  0  0  0  0
 29 30  1  6  0  0  0
 30 31  1  0  0  0  0
 30 32  1  0  0  0  0
 30 33  1  0  0  0  0
 34 39  1  0  0  0  0
 34 35  1  1  0  0  0
 35 36  1  0  0  0  0
 35 37  1  0  0  0  0
 35 38  1  0  0  0  0
 39 44  1  0  0  0  0
 39 40  1  6  0  0  0
 40 41  1  0  0  0  0
 40 42  1  0  0  0  0
 40 43  1  0  0  0  0
 44 45  1  6  0  0  0
 45 46  1  0  0  0  0
 45 47  1  0  0  0  0
 45 48  1  0  0  0  0
M  END
$$$$
