
     RDKit          3D

  0  0  0  0  0  0  0  0  0  0999 V3000
M  V30 BEGIN CTAB
M  V30 COUNTS 114 121 0 0 0
M  V30 BEGIN ATOM
M  V30 1 C -0.058366 -4.696295 0.498613 0
M  V30 2 O 0.112051 -3.570212 -0.277856 0
M  V30 3 C 1.016040 -4.111121 -1.192480 0
M  V30 4 C 0.769422 -3.251529 -2.350178 0
M  V30 5 O 0.609713 -2.100753 -1.590478 0
M  V30 6 C 0.505508 -1.195740 -2.657491 0
M  V30 7 Eu -0.132101 -1.754928 0.127820 0 VAL=7
M  V30 8 N -1.739461 -2.348129 -0.891232 0
M  V30 9 C -2.721333 -2.409884 -1.438210 0
M  V30 10 S -3.905000 -2.887123 -2.332422 0
M  V30 11 N -1.164779 0.085390 0.003185 0
M  V30 12 C -2.443981 0.527764 -0.596416 0
M  V30 13 C -3.524404 0.446340 0.319523 0
M  V30 14 C -4.819751 0.767871 -0.169611 0
M  V30 15 C -5.100991 1.154915 -1.490563 0
M  V30 16 C -3.962225 1.194632 -2.284609 0
M  V30 17 C -2.660658 0.899438 -1.878746 0
M  V30 18 C -1.800207 1.279334 -2.960810 0
M  V30 19 C -2.472459 0.903360 -4.302894 0
M  V30 20 C -1.914642 2.885264 -3.049068 0
M  V30 21 C -3.923702 -0.019384 1.656867 0
M  V30 22 C -4.957048 0.831154 2.364917 0
M  V30 23 C -4.732223 -1.346282 1.475144 0
M  V30 24 C -0.472748 1.077242 0.801999 0
M  V30 25 C 0.842686 0.953621 0.855878 0
M  V30 26 N 1.310135 -0.183479 0.051026 0
M  V30 27 C 2.601025 0.206273 -0.542748 0
M  V30 28 C 3.877697 -0.266736 -0.437053 0
M  V30 29 C 5.030419 0.096587 -1.041839 0
M  V30 30 C 4.879829 1.104681 -1.899906 0
M  V30 31 C 3.685829 1.716495 -2.143588 0
M  V30 32 C 2.573336 1.294675 -1.489015 0
M  V30 33 C 1.497800 2.328152 -1.779937 0
M  V30 34 C 1.679235 2.743812 -3.227163 0
M  V30 35 C 1.863504 3.623134 -1.011436 0
M  V30 36 C 4.104103 -1.440677 0.437560 0
M  V30 37 C 5.560027 -1.410539 0.942637 0
M  V30 38 C 4.136514 -2.623937 -0.560653 0
M  V30 39 C 1.372654 2.050715 1.738576 0
M  V30 40 C 2.637346 2.420704 2.175566 0
M  V30 41 C 2.797709 3.503541 3.012470 0
M  V30 42 C 1.685518 4.222014 3.414296 0
M  V30 43 C 0.422734 3.911142 3.023550 0
M  V30 44 C -0.736990 4.575171 3.383039 0
M  V30 45 C -1.914374 4.054919 2.850022 0
M  V30 46 C -1.907748 2.956044 2.026309 0
M  V30 47 C -0.794032 2.276705 1.652119 0
M  V30 48 C 0.336440 2.827259 2.196384 0
M  V30 49 O 0.852500 -2.198449 1.830162 0
M  V30 50 C 1.741714 -3.143456 2.045394 0
M  V30 51 C 0.375289 -2.069644 3.177533 0
M  V30 52 C -0.658067 -1.119598 2.836265 0
M  V30 53 O -1.186351 -1.913555 1.750139 0
M  V30 54 C -1.868372 -2.844754 2.273078 0
M  V30 55 H 0.813602 -5.151229 0.939997 0
M  V30 56 H -0.452174 -5.444652 -0.314406 0
M  V30 57 H -0.939349 -4.679808 1.128319 0
M  V30 58 H 2.002702 -4.335935 -0.853803 0
M  V30 59 H 0.473832 -5.095978 -1.499441 0
M  V30 60 H -0.176299 -3.404758 -2.864728 0
M  V30 61 H 1.603219 -3.163765 -3.038698 0
M  V30 62 H 0.394751 -0.236180 -2.136042 0
M  V30 63 H 1.480889 -1.244792 -3.167523 0
M  V30 64 H -0.332715 -1.456931 -3.297976 0
M  V30 65 H -5.807386 0.779112 0.347176 0
M  V30 66 H -6.092060 1.399843 -1.871531 0
M  V30 67 H -4.270791 1.502551 -3.285944 0
M  V30 68 H -0.785130 1.162215 -3.064469 0
M  V30 69 H -3.012646 1.766902 -4.683301 0
M  V30 70 H -1.679685 0.631475 -5.041856 0
M  V30 71 H -3.181336 0.076628 -4.147116 0
M  V30 72 H -1.402899 3.326309 -2.213606 0
M  V30 73 H -2.990977 3.053519 -2.965126 0
M  V30 74 H -1.572517 3.190072 -4.024140 0
M  V30 75 H -3.143537 -0.212044 2.308817 0
M  V30 76 H -5.945112 0.374591 2.250828 0
M  V30 77 H -4.762169 0.859514 3.457295 0
M  V30 78 H -5.003390 1.811073 1.873669 0
M  V30 79 H -4.567465 -2.052523 2.272094 0
M  V30 80 H -5.830593 -1.043470 1.430873 0
M  V30 81 H -4.486750 -1.708450 0.467909 0
M  V30 82 H 5.992088 -0.348041 -0.884836 0
M  V30 83 H 5.783404 1.409640 -2.415270 0
M  V30 84 H 3.785065 2.500333 -2.875059 0
M  V30 85 H 0.512978 2.034975 -1.618443 0
M  V30 86 H 2.041906 1.912091 -3.871649 0
M  V30 87 H 0.753503 3.090926 -3.723497 0
M  V30 88 H 2.345833 3.641292 -3.271281 0
M  V30 89 H 2.037151 4.472910 -1.700977 0
M  V30 90 H 2.815375 3.499101 -0.466723 0
M  V30 91 H 0.997296 3.920395 -0.396560 0
M  V30 92 H 3.431889 -1.552969 1.201159 0
M  V30 93 H 6.203741 -1.948084 0.246780 0
M  V30 94 H 5.836729 -0.360747 1.123804 0
M  V30 95 H 5.501737 -1.936875 1.948026 0
M  V30 96 H 5.099919 -2.512023 -1.140383 0
M  V30 97 H 3.350737 -2.486836 -1.302997 0
M  V30 98 H 4.151714 -3.580583 -0.088133 0
M  V30 99 H 3.407669 1.741909 1.763833 0
M  V30 100 H 3.794333 3.716227 3.299374 0
M  V30 101 H 1.814205 5.078556 4.076145 0
M  V30 102 H -0.646560 5.412064 4.020488 0
M  V30 103 H -2.837044 4.530330 3.097307 0
M  V30 104 H -2.834259 2.602730 1.631500 0
M  V30 105 H 2.352104 -3.581244 1.302722 0
M  V30 106 H 2.460260 -2.690775 2.818070 0
M  V30 107 H 1.300713 -3.977470 2.698339 0
M  V30 108 H 0.175213 -3.054598 3.488624 0
M  V30 109 H 1.220487 -1.646134 3.793012 0
M  V30 110 H -1.462319 -1.203262 3.598291 0
M  V30 111 H -0.438045 -0.124039 2.653199 0
M  V30 112 H -1.398251 -3.603044 2.905845 0
M  V30 113 H -2.636955 -3.312058 1.644975 0
M  V30 114 H -2.551391 -2.360130 3.113371 0
M  V30 END ATOM
M  V30 BEGIN BOND
M  V30 1 1 1 2
M  V30 2 1 2 3
M  V30 3 1 3 4
M  V30 4 1 4 5
M  V30 5 1 5 6
M  V30 6 9 5 7
M  V30 7 1 7 8
M  V30 8 2 8 9
M  V30 9 2 9 10
M  V30 10 1 7 11
M  V30 11 1 11 12
M  V30 12 2 12 13
M  V30 13 1 13 14
M  V30 14 2 14 15
M  V30 15 1 15 16
M  V30 16 2 16 17
M  V30 17 1 17 18
M  V30 18 1 18 19
M  V30 19 1 18 20
M  V30 20 1 13 21
M  V30 21 1 21 22
M  V30 22 1 21 23
M  V30 23 1 11 24
M  V30 24 2 24 25
M  V30 25 1 25 26
M  V30 26 1 26 27
M  V30 27 2 27 28
M  V30 28 1 28 29
M  V30 29 2 29 30
M  V30 30 1 30 31
M  V30 31 2 31 32
M  V30 32 1 32 33
M  V30 33 1 33 34
M  V30 34 1 33 35
M  V30 35 1 28 36
M  V30 36 1 36 37
M  V30 37 1 36 38
M  V30 38 1 25 39
M  V30 39 2 39 40
M  V30 40 1 40 41
M  V30 41 2 41 42
M  V30 42 1 42 43
M  V30 43 2 43 44
M  V30 44 1 44 45
M  V30 45 2 45 46
M  V30 46 1 46 47
M  V30 47 2 47 48
M  V30 48 9 49 7
M  V30 49 1 49 50
M  V30 50 1 49 51
M  V30 51 1 51 52
M  V30 52 1 52 53
M  V30 53 1 53 54
M  V30 54 9 2 7
M  V30 55 1 17 12
M  V30 56 1 47 24
M  V30 57 1 26 7
M  V30 58 1 32 27
M  V30 59 1 48 39
M  V30 60 9 53 7
M  V30 61 1 48 43
M  V30 62 1 1 55
M  V30 63 1 1 56
M  V30 64 1 1 57
M  V30 65 1 3 58
M  V30 66 1 3 59
M  V30 67 1 4 60
M  V30 68 1 4 61
M  V30 69 1 6 62
M  V30 70 1 6 63
M  V30 71 1 6 64
M  V30 72 1 14 65
M  V30 73 1 15 66
M  V30 74 1 16 67
M  V30 75 1 18 68
M  V30 76 1 19 69
M  V30 77 1 19 70
M  V30 78 1 19 71
M  V30 79 1 20 72
M  V30 80 1 20 73
M  V30 81 1 20 74
M  V30 82 1 21 75
M  V30 83 1 22 76
M  V30 84 1 22 77
M  V30 85 1 22 78
M  V30 86 1 23 79
M  V30 87 1 23 80
M  V30 88 1 23 81
M  V30 89 1 29 82
M  V30 90 1 30 83
M  V30 91 1 31 84
M  V30 92 1 33 85
M  V30 93 1 34 86
M  V30 94 1 34 87
M  V30 95 1 34 88
M  V30 96 1 35 89
M  V30 97 1 35 90
M  V30 98 1 35 91
M  V30 99 1 36 92
M  V30 100 1 37 93
M  V30 101 1 37 94
M  V30 102 1 37 95
M  V30 103 1 38 96
M  V30 104 1 38 97
M  V30 105 1 38 98
M  V30 106 1 40 99
M  V30 107 1 41 100
M  V30 108 1 42 101
M  V30 109 1 44 102
M  V30 110 1 45 103
M  V30 111 1 46 104
M  V30 112 1 50 105
M  V30 113 1 50 106
M  V30 114 1 50 107
M  V30 115 1 51 108
M  V30 116 1 51 109
M  V30 117 1 52 110
M  V30 118 1 52 111
M  V30 119 1 54 112
M  V30 120 1 54 113
M  V30 121 1 54 114
M  V30 END BOND
M  V30 END CTAB
M  END
