
 OpenBabel09252517043D

 26 26  0  0  0  0  0  0  0  0999 V2000
    3.1716   -0.0127    0.8675 H   0  0  0  0  0  0  0  0  0  0  0  0
    2.8973   -0.3065   -0.1398 C   0  0  0  0  0  3  0  0  0  0  0  0
    2.1677   -1.5547   -0.3385 C   0  0  0  0  0  3  0  0  0  0  0  0
    1.9645   -2.1880    0.5183 H   0  0  0  0  0  0  0  0  0  0  0  0
    1.8841   -2.0257   -1.6968 C   0  0  0  0  0  3  0  0  0  0  0  0
    1.5169   -3.4231   -1.9261 N   0  0  0  0  0  0  0  0  0  0  0  0
    1.4487   -4.1677   -0.9385 O   0  0  0  0  0  0  0  0  0  0  0  0
    1.3063   -3.7772   -3.0941 O   0  0  0  0  0  0  0  0  0  0  0  0
    2.1641   -1.1457   -2.8340 C   0  0  0  0  0  3  0  0  0  0  0  0
    1.9631   -1.4737   -3.8482 H   0  0  0  0  0  0  0  0  0  0  0  0
    2.9173    0.0860   -2.6281 C   0  0  0  0  0  3  0  0  0  0  0  0
    3.2699    0.6433   -3.4907 H   0  0  0  0  0  0  0  0  0  0  0  0
    3.4460    0.4159   -1.2969 C   0  0  0  0  0  3  0  0  0  0  0  0
    4.7233    1.1714   -1.1976 C   0  0  0  0  0  0  0  0  0  0  0  0
    5.4675    1.3597   -2.1605 O   0  0  0  0  0  0  0  0  0  0  0  0
    4.9731    1.5281    0.0818 O   0  0  0  0  0  0  0  0  0  0  0  0
    6.3257    1.9198    0.3849 C   0  0  0  0  0  0  0  0  0  0  0  0
    7.0176    1.1900   -0.0541 H   0  0  0  0  0  0  0  0  0  0  0  0
    6.6408    3.3225   -0.1220 C   0  0  0  0  0  0  0  0  0  0  0  0
    5.9138    4.0498    0.2531 H   0  0  0  0  0  0  0  0  0  0  0  0
    7.6443    3.6320    0.1878 H   0  0  0  0  0  0  0  0  0  0  0  0
    6.6009    3.3714   -1.2141 H   0  0  0  0  0  0  0  0  0  0  0  0
    6.4619    1.8612    1.9028 C   0  0  0  0  0  0  0  0  0  0  0  0
    5.7927    2.5840    2.3835 H   0  0  0  0  0  0  0  0  0  0  0  0
    6.1745    0.8722    2.2765 H   0  0  0  0  0  0  0  0  0  0  0  0
    7.4881    2.0705    2.2190 H   0  0  0  0  0  0  0  0  0  0  0  0
  1  2  1  0  0  0  0
  2  3  1  0  0  0  0
  2 13  1  0  0  0  0
  3  4  1  0  0  0  0
  3  5  1  0  0  0  0
  5  6  1  0  0  0  0
  5  9  1  0  0  0  0
  6  7  2  0  0  0  0
  6  8  2  0  0  0  0
  9 10  1  0  0  0  0
  9 11  1  0  0  0  0
 11 12  1  0  0  0  0
 11 13  1  0  0  0  0
 13 14  1  0  0  0  0
 14 15  2  0  0  0  0
 14 16  1  0  0  0  0
 16 17  1  0  0  0  0
 17 18  1  0  0  0  0
 17 19  1  0  0  0  0
 17 23  1  0  0  0  0
 19 20  1  0  0  0  0
 19 21  1  0  0  0  0
 19 22  1  0  0  0  0
 23 24  1  0  0  0  0
 23 25  1  0  0  0  0
 23 26  1  0  0  0  0
M  END
$$$$
