
     RDKit          3D

 62 63  0  0  0  0  0  0  0  0999 V2000
   -1.3303   -0.3880    2.2972 C   0  0  0  0  0  0  0  0  0  0  0  0
   -1.2705   -0.5988    0.4605 Pt  0  0  0  0  0  6  0  0  0  0  0  0
   -1.9067   -0.6369   -1.2865 C   0  0  0  0  0  0  0  0  0  0  0  0
   -0.2362   -2.3004    0.5140 C   0  0  0  0  0  0  0  0  0  0  0  0
    0.5089    0.1677    0.0179 N   0  0  0  0  0  0  0  0  0  0  0  0
    1.4379    0.6080    0.8259 N   0  0  0  0  0  0  0  0  0  0  0  0
    2.5105    1.0017    0.2185 C   0  0  0  0  0  0  0  0  0  0  0  0
    3.5416    1.4827    1.1288 C   0  0  0  0  0  0  0  0  0  0  0  0
    4.8728    0.8188    0.8319 C   0  0  0  0  0  0  0  0  0  0  0  0
    5.2546    1.1419   -0.5995 C   0  0  0  0  0  0  0  0  0  0  0  0
    5.1167   -0.0286   -1.5054 C   0  0  0  0  0  0  0  0  0  0  0  0
    4.1243    0.0986   -2.6086 C   0  0  0  0  0  0  0  0  0  0  0  0
    2.9691    0.9973   -2.3762 C   0  0  0  0  0  0  0  0  0  0  0  0
    2.3020    0.8208   -1.0785 C   0  0  0  0  0  0  0  0  0  0  0  0
    1.1056    0.3271   -1.1411 N   0  0  0  0  0  0  0  0  0  0  0  0
   -1.8831    1.3314    0.4777 P   0  0  0  0  0  4  0  0  0  0  0  0
   -3.5341    1.6496    0.9224 C   0  0  0  0  0  0  0  0  0  0  0  0
   -1.6646    2.2803   -1.0965 C   0  0  0  0  0  0  0  0  0  0  0  0
   -0.9033    2.5295    1.5340 C   0  0  0  0  0  0  0  0  0  0  0  0
   -2.7591   -1.7518    0.6803 P   0  0  0  0  0  4  0  0  0  0  0  0
   -4.3866   -1.0075    0.7056 C   0  0  0  0  0  0  0  0  0  0  0  0
   -2.9083   -2.8184    2.2066 C   0  0  0  0  0  0  0  0  0  0  0  0
   -3.0419   -3.2378   -0.4489 C   0  0  0  0  0  0  0  0  0  0  0  0
   -2.1010    0.0023    2.9619 H   0  0  0  0  0  0  0  0  0  0  0  0
   -1.0779   -1.2880    2.9660 H   0  0  0  0  0  0  0  0  0  0  0  0
   -0.4085    0.1340    2.7517 H   0  0  0  0  0  0  0  0  0  0  0  0
   -2.8664   -0.4014   -1.7264 H   0  0  0  0  0  0  0  0  0  0  0  0
   -1.3242    0.0171   -2.0497 H   0  0  0  0  0  0  0  0  0  0  0  0
   -1.5614   -1.5238   -1.9315 H   0  0  0  0  0  0  0  0  0  0  0  0
    0.0837   -2.6195   -0.4803 H   0  0  0  0  0  0  0  0  0  0  0  0
   -0.6390   -3.0967    0.9900 H   0  0  0  0  0  0  0  0  0  0  0  0
    0.7030   -2.2349    1.1535 H   0  0  0  0  0  0  0  0  0  0  0  0
    3.3456    1.2818    2.2000 H   0  0  0  0  0  0  0  0  0  0  0  0
    3.5762    2.5901    1.0494 H   0  0  0  0  0  0  0  0  0  0  0  0
    5.6284    1.1656    1.5654 H   0  0  0  0  0  0  0  0  0  0  0  0
    4.7183   -0.2647    0.9966 H   0  0  0  0  0  0  0  0  0  0  0  0
    4.7175    2.0563   -0.9114 H   0  0  0  0  0  0  0  0  0  0  0  0
    6.3300    1.4368   -0.5677 H   0  0  0  0  0  0  0  0  0  0  0  0
    6.1173   -0.3619   -1.9112 H   0  0  0  0  0  0  0  0  0  0  0  0
    4.8056   -0.9083   -0.8763 H   0  0  0  0  0  0  0  0  0  0  0  0
    3.6963   -0.9001   -2.9162 H   0  0  0  0  0  0  0  0  0  0  0  0
    4.6799    0.4431   -3.5050 H   0  0  0  0  0  0  0  0  0  0  0  0
    3.1667    2.0845   -2.4737 H   0  0  0  0  0  0  0  0  0  0  0  0
    2.2599    0.7979   -3.2357 H   0  0  0  0  0  0  0  0  0  0  0  0
   -4.3455    1.4512    0.2088 H   0  0  0  0  0  0  0  0  0  0  0  0
   -3.5748    2.8117    0.8769 H   0  0  0  0  0  0  0  0  0  0  0  0
   -3.7878    1.5403    2.0042 H   0  0  0  0  0  0  0  0  0  0  0  0
   -2.1255    3.2173   -0.9016 H   0  0  0  0  0  0  0  0  0  0  0  0
   -2.3194    1.7786   -1.8707 H   0  0  0  0  0  0  0  0  0  0  0  0
   -0.6171    2.2736   -1.3992 H   0  0  0  0  0  0  0  0  0  0  0  0
    0.1303    2.5619    1.1771 H   0  0  0  0  0  0  0  0  0  0  0  0
   -1.0230    2.1356    2.5713 H   0  0  0  0  0  0  0  0  0  0  0  0
   -1.4597    3.4421    1.4709 H   0  0  0  0  0  0  0  0  0  0  0  0
   -4.7171   -0.6518   -0.2953 H   0  0  0  0  0  0  0  0  0  0  0  0
   -5.0937   -1.9060    0.8032 H   0  0  0  0  0  0  0  0  0  0  0  0
   -4.6695   -0.4502    1.5814 H   0  0  0  0  0  0  0  0  0  0  0  0
   -2.0160   -3.3776    2.4162 H   0  0  0  0  0  0  0  0  0  0  0  0
   -2.9746   -2.0327    3.0198 H   0  0  0  0  0  0  0  0  0  0  0  0
   -3.8416   -3.3156    2.2067 H   0  0  0  0  0  0  0  0  0  0  0  0
   -2.2192   -3.9351   -0.3178 H   0  0  0  0  0  0  0  0  0  0  0  0
   -4.0203   -3.6134   -0.2419 H   0  0  0  0  0  0  0  0  0  0  0  0
   -3.0947   -2.8274   -1.4993 H   0  0  0  0  0  0  0  0  0  0  0  0
  1  2  1  0
  2  3  1  0
  2  4  1  0
  2  5  1  0
  5  6  1  0
  6  7  2  0
  7  8  1  0
  8  9  1  0
  9 10  1  0
 10 11  1  0
 11 12  1  0
 12 13  1  0
 13 14  1  0
 14 15  2  0
  2 16  1  0
 16 17  1  0
 16 18  1  0
 16 19  1  0
  2 20  1  0
 20 21  1  0
 20 22  1  0
 20 23  1  0
 15  5  1  0
 14  7  1  0
  1 24  1  0
  1 25  1  0
  1 26  1  0
  3 27  1  0
  3 28  1  0
  3 29  1  0
  4 30  1  0
  4 31  1  0
  4 32  1  0
  8 33  1  0
  8 34  1  0
  9 35  1  0
  9 36  1  0
 10 37  1  0
 10 38  1  0
 11 39  1  0
 11 40  1  0
 12 41  1  0
 12 42  1  0
 13 43  1  0
 13 44  1  0
 17 45  1  0
 17 46  1  0
 17 47  1  0
 18 48  1  0
 18 49  1  0
 18 50  1  0
 19 51  1  0
 19 52  1  0
 19 53  1  0
 21 54  1  0
 21 55  1  0
 21 56  1  0
 22 57  1  0
 22 58  1  0
 22 59  1  0
 23 60  1  0
 23 61  1  0
 23 62  1  0
M  RAD  2  16   2  20   2
M  END
