
 OpenBabel09252519583D

114121  0  0  0  0  0  0  0  0999 V2000
    1.0956    0.0279   -0.0095 C   0  0  0  0  0  0  0  0  0  0  0  0
    0.6222    0.7686   -1.1247 O   0  0  0  0  0  0  0  0  0  0  0  0
    1.6237    0.9173   -2.0090 C   0  0  0  0  0  0  0  0  0  0  0  0
    1.5870    2.2605   -2.5801 C   0  0  0  0  0  0  0  0  0  0  0  0
    0.9858    3.1421   -1.4596 O   0  0  0  0  0  0  0  0  0  0  0  0
    0.1684    4.1724   -1.9952 C   0  0  0  0  0  0  0  0  0  0  0  0
    0.1529    2.1220   -0.6683 Eu  0  0  0  0  0  0  0  0  0  0  0  0
   -0.1739    0.6889   -2.9212 N   0  0  0  0  0  0  0  0  0  0  0  0
   -0.3906    1.3018   -4.0651 C   0  0  0  0  0  0  0  0  0  0  0  0
   -0.6575    2.0564   -5.4735 S   0  0  0  0  0  0  0  0  0  0  0  0
   -0.0543    0.0405   -2.3596 N   0  0  0  0  0  0  0  0  0  0  0  0
    0.8445   -1.1140   -2.2180 C   0  0  0  0  0  0  0  0  0  0  0  0
    0.8361   -1.7967   -1.0932 C   0  0  0  0  0  0  0  0  0  0  0  0
    1.6901   -2.8880   -0.9765 C   0  0  0  0  0  0  0  0  0  0  0  0
    2.1147   -3.4892   -2.1823 C   0  0  0  0  0  0  0  0  0  0  0  0
    2.3233   -2.6308   -3.2604 C   0  0  0  0  0  0  0  0  0  0  0  0
    1.6991   -1.4721   -3.2665 C   0  0  0  0  0  0  0  0  0  0  0  0
    1.9088   -0.5119   -4.4260 C   0  0  0  0  0  0  0  0  0  0  0  0
    3.3804   -0.1427   -4.5182 C   0  0  0  0  0  0  0  0  0  0  0  0
    1.4714   -1.1775   -5.7206 C   0  0  0  0  0  0  0  0  0  0  0  0
   -0.0844   -1.4023    0.0503 C   0  0  0  0  0  0  0  0  0  0  0  0
   -1.0224   -2.5558    0.3666 C   0  0  0  0  0  0  0  0  0  0  0  0
    0.7469   -1.0735    1.2796 C   0  0  0  0  0  0  0  0  0  0  0  0
   -1.0665    0.0575   -3.4256 C   0  0  0  0  0  0  0  0  0  0  0  0
   -2.0514   -0.8200   -3.5883 C   0  0  0  0  0  0  0  0  0  0  0  0
    0.5604    4.6383    0.1909 N   0  0  0  0  0  0  0  0  0  0  0  0
    0.6772    4.9137    1.6301 C   0  0  0  0  0  0  0  0  0  0  0  0
    1.6301    4.3451    2.3373 C   0  0  0  0  0  0  0  0  0  0  0  0
    1.7502    4.6875    3.6797 C   0  0  0  0  0  0  0  0  0  0  0  0
    1.2158    5.9380    4.0626 C   0  0  0  0  0  0  0  0  0  0  0  0
    0.0550    6.3411    3.4049 C   0  0  0  0  0  0  0  0  0  0  0  0
   -0.1991    5.8328    2.2176 C   0  0  0  0  0  0  0  0  0  0  0  0
   -1.4591    6.2490    1.4763 C   0  0  0  0  0  0  0  0  0  0  0  0
   -2.6791    5.8847    2.3064 C   0  0  0  0  0  0  0  0  0  0  0  0
   -1.4361    7.7506    1.2414 C   0  0  0  0  0  0  0  0  0  0  0  0
    2.5761    3.3389    1.7025 C   0  0  0  0  0  0  0  0  0  0  0  0
    4.0046    3.8463    1.8138 C   0  0  0  0  0  0  0  0  0  0  0  0
    2.4546    2.0055    2.4220 C   0  0  0  0  0  0  0  0  0  0  0  0
   -2.8507   -0.4694   -4.7685 C   0  0  0  0  0  0  0  0  0  0  0  0
   -4.0318   -1.0171   -5.4621 C   0  0  0  0  0  0  0  0  0  0  0  0
   -4.4871   -0.4059   -6.5421 C   0  0  0  0  0  0  0  0  0  0  0  0
   -3.8530    0.8153   -7.0858 C   0  0  0  0  0  0  0  0  0  0  0  0
   -2.8030    1.3020   -6.4689 C   0  0  0  0  0  0  0  0  0  0  0  0
   -2.0437    2.5018   -6.8605 C   0  0  0  0  0  0  0  0  0  0  0  0
   -1.0055    2.8531   -6.1239 C   0  0  0  0  0  0  0  0  0  0  0  0
   -0.5527    2.1214   -4.9294 C   0  0  0  0  0  0  0  0  0  0  0  0
   -1.1742    1.0489   -4.5073 C   0  0  0  0  0  0  0  0  0  0  0  0
   -2.3314    0.5993   -5.2816 C   0  0  0  0  0  0  0  0  0  0  0  0
    0.3265    2.3052    0.8137 O   0  0  0  0  0  0  0  0  0  0  0  0
    1.2563    3.3507    1.0560 C   0  0  0  0  0  0  0  0  0  0  0  0
   -0.8573    2.6209    1.3666 C   0  0  0  0  0  0  0  0  0  0  0  0
   -1.9438    2.2096    0.4828 C   0  0  0  0  0  0  0  0  0  0  0  0
   -1.3496    2.3156   -0.9420 O   0  0  0  0  0  0  0  0  0  0  0  0
   -1.8566    1.2968   -1.7914 C   0  0  0  0  0  0  0  0  0  0  0  0
    0.7389   -0.9789   -0.0727 H   0  0  0  0  0  0  0  0  0  0  0  0
    0.7389    0.4765    0.8941 H   0  0  0  0  0  0  0  0  0  0  0  0
    2.1656    0.0279   -0.0095 H   0  0  0  0  0  0  0  0  0  0  0  0
    1.5110    0.1979   -2.7930 H   0  0  0  0  0  0  0  0  0  0  0  0
    2.5600    0.7681   -1.5130 H   0  0  0  0  0  0  0  0  0  0  0  0
    2.5545    2.5981   -2.8882 H   0  0  0  0  0  0  0  0  0  0  0  0
    0.9680    2.2837   -3.4526 H   0  0  0  0  0  0  0  0  0  0  0  0
   -0.5595    3.7448   -2.6525 H   0  0  0  0  0  0  0  0  0  0  0  0
   -0.3282    4.6845   -1.1977 H   0  0  0  0  0  0  0  0  0  0  0  0
    0.7772    4.8643   -2.5389 H   0  0  0  0  0  0  0  0  0  0  0  0
    2.0090   -3.2534   -0.0227 H   0  0  0  0  0  0  0  0  0  0  0  0
    2.2678   -4.5451   -2.2635 H   0  0  0  0  0  0  0  0  0  0  0  0
    2.9747   -2.9070   -4.0631 H   0  0  0  0  0  0  0  0  0  0  0  0
    1.3285    0.3727   -4.2660 H   0  0  0  0  0  0  0  0  0  0  0  0
    3.9607   -1.0273   -4.6782 H   0  0  0  0  0  0  0  0  0  0  0  0
    3.5281    0.5333   -5.3344 H   0  0  0  0  0  0  0  0  0  0  0  0
    3.6884    0.3259   -3.6069 H   0  0  0  0  0  0  0  0  0  0  0  0
    0.4354   -1.4374   -5.6557 H   0  0  0  0  0  0  0  0  0  0  0  0
    1.6190   -0.5016   -6.5368 H   0  0  0  0  0  0  0  0  0  0  0  0
    2.0517   -2.0621   -5.8806 H   0  0  0  0  0  0  0  0  0  0  0  0
   -0.6573   -0.5441   -0.2328 H   0  0  0  0  0  0  0  0  0  0  0  0
   -0.4495   -3.4140    0.6496 H   0  0  0  0  0  0  0  0  0  0  0  0
   -1.6704   -2.2782    1.1715 H   0  0  0  0  0  0  0  0  0  0  0  0
   -1.6076   -2.7872   -0.4988 H   0  0  0  0  0  0  0  0  0  0  0  0
    1.4072   -0.2615    1.0570 H   0  0  0  0  0  0  0  0  0  0  0  0
    0.0989   -0.7959    2.0845 H   0  0  0  0  0  0  0  0  0  0  0  0
    1.3198   -1.9318    1.5627 H   0  0  0  0  0  0  0  0  0  0  0  0
    2.2229    4.0376    4.3861 H   0  0  0  0  0  0  0  0  0  0  0  0
    1.6767    6.5422    4.8159 H   0  0  0  0  0  0  0  0  0  0  0  0
   -0.6129    7.0462    3.8538 H   0  0  0  0  0  0  0  0  0  0  0  0
   -1.5034    5.7415    0.5353 H   0  0  0  0  0  0  0  0  0  0  0  0
   -2.6348    6.3922    3.2474 H   0  0  0  0  0  0  0  0  0  0  0  0
   -3.5661    6.1777    1.7845 H   0  0  0  0  0  0  0  0  0  0  0  0
   -2.6953    4.8276    2.4717 H   0  0  0  0  0  0  0  0  0  0  0  0
   -0.5772    8.0071    0.6571 H   0  0  0  0  0  0  0  0  0  0  0  0
   -2.3230    8.0436    0.7196 H   0  0  0  0  0  0  0  0  0  0  0  0
   -1.3918    8.2581    2.1824 H   0  0  0  0  0  0  0  0  0  0  0  0
    2.3220    3.2119    0.6709 H   0  0  0  0  0  0  0  0  0  0  0  0
    4.2587    3.9732    2.8454 H   0  0  0  0  0  0  0  0  0  0  0  0
    4.6705    3.1380    1.3670 H   0  0  0  0  0  0  0  0  0  0  0  0
    4.0901    4.7850    1.3073 H   0  0  0  0  0  0  0  0  0  0  0  0
    1.4490    1.6482    2.3437 H   0  0  0  0  0  0  0  0  0  0  0  0
    3.1206    1.2971    1.9752 H   0  0  0  0  0  0  0  0  0  0  0  0
    2.7087    2.1324    3.4537 H   0  0  0  0  0  0  0  0  0  0  0  0
   -4.5143   -1.8989   -5.0953 H   0  0  0  0  0  0  0  0  0  0  0  0
   -5.3442   -0.8084   -7.0405 H   0  0  0  0  0  0  0  0  0  0  0  0
   -4.2421    1.2904   -7.9620 H   0  0  0  0  0  0  0  0  0  0  0  0
   -2.3259    3.0739   -7.7195 H   0  0  0  0  0  0  0  0  0  0  0  0
   -0.4582    3.7256   -6.4139 H   0  0  0  0  0  0  0  0  0  0  0  0
    0.3039    2.4741   -4.3938 H   0  0  0  0  0  0  0  0  0  0  0  0
    0.8920    4.2593    0.6239 H   0  0  0  0  0  0  0  0  0  0  0  0
    1.3791    3.4815    2.1109 H   0  0  0  0  0  0  0  0  0  0  0  0
    2.1986    3.0992    0.6158 H   0  0  0  0  0  0  0  0  0  0  0  0
   -0.9056    3.6794    1.5152 H   0  0  0  0  0  0  0  0  0  0  0  0
   -0.9550    2.1188    2.3064 H   0  0  0  0  0  0  0  0  0  0  0  0
   -2.8170    2.8158    0.6043 H   0  0  0  0  0  0  0  0  0  0  0  0
   -2.2421    1.2040    0.6938 H   0  0  0  0  0  0  0  0  0  0  0  0
   -1.6042    0.3382   -1.3886 H   0  0  0  0  0  0  0  0  0  0  0  0
   -2.9207    1.3860   -1.8596 H   0  0  0  0  0  0  0  0  0  0  0  0
   -1.4269    1.3985   -2.7661 H   0  0  0  0  0  0  0  0  0  0  0  0
  1  2  1  0  0  0  0
  1 55  1  0  0  0  0
  1 56  1  0  0  0  0
  1 57  1  0  0  0  0
  2  3  1  0  0  0  0
  2  7  1  0  0  0  0
  3  4  1  0  0  0  0
  3 58  1  0  0  0  0
  3 59  1  0  0  0  0
  4  5  1  0  0  0  0
  4 60  1  0  0  0  0
  4 61  1  0  0  0  0
  5  6  1  0  0  0  0
  5  7  1  0  0  0  0
  6 62  1  0  0  0  0
  6 63  1  0  0  0  0
  6 64  1  0  0  0  0
  7  8  1  0  0  0  0
  7 11  1  0  0  0  0
  7 26  1  0  0  0  0
  7 49  1  0  0  0  0
  7 53  1  0  0  0  0
  8  9  2  0  0  0  0
  9 10  2  0  0  0  0
 11 12  1  0  0  0  0
 11 24  1  0  0  0  0
 12 13  1  0  0  0  0
 12 17  2  0  0  0  0
 13 14  2  0  0  0  0
 13 21  1  0  0  0  0
 14 15  1  0  0  0  0
 14 65  1  0  0  0  0
 15 16  2  0  0  0  0
 15 66  1  0  0  0  0
 16 17  1  0  0  0  0
 16 67  1  0  0  0  0
 17 18  1  0  0  0  0
 18 19  1  0  0  0  0
 18 20  1  0  0  0  0
 18 68  1  0  0  0  0
 19 69  1  0  0  0  0
 19 70  1  0  0  0  0
 19 71  1  0  0  0  0
 20 72  1  0  0  0  0
 20 73  1  0  0  0  0
 20 74  1  0  0  0  0
 21 22  1  0  0  0  0
 21 23  1  0  0  0  0
 21 75  1  0  0  0  0
 22 76  1  0  0  0  0
 22 77  1  0  0  0  0
 22 78  1  0  0  0  0
 23 79  1  0  0  0  0
 23 80  1  0  0  0  0
 23 81  1  0  0  0  0
 24 25  2  0  0  0  0
 24 47  1  0  0  0  0
 25 26  1  0  0  0  0
 25 39  1  0  0  0  0
 26 27  1  0  0  0  0
 27 28  1  0  0  0  0
 27 32  2  0  0  0  0
 28 29  2  0  0  0  0
 28 36  1  0  0  0  0
 29 30  1  0  0  0  0
 29 82  1  0  0  0  0
 30 31  2  0  0  0  0
 30 83  1  0  0  0  0
 31 32  1  0  0  0  0
 31 84  1  0  0  0  0
 32 33  1  0  0  0  0
 33 34  1  0  0  0  0
 33 35  1  0  0  0  0
 33 85  1  0  0  0  0
 34 86  1  0  0  0  0
 34 87  1  0  0  0  0
 34 88  1  0  0  0  0
 35 89  1  0  0  0  0
 35 90  1  0  0  0  0
 35 91  1  0  0  0  0
 36 37  1  0  0  0  0
 36 38  1  0  0  0  0
 36 92  1  0  0  0  0
 37 93  1  0  0  0  0
 37 94  1  0  0  0  0
 37 95  1  0  0  0  0
 38 96  1  0  0  0  0
 38 97  1  0  0  0  0
 38 98  1  0  0  0  0
 39 40  1  0  0  0  0
 39 48  2  0  0  0  0
 40 41  2  0  0  0  0
 40 99  1  0  0  0  0
 41 42  1  0  0  0  0
 41100  1  0  0  0  0
 42 43  2  0  0  0  0
 42101  1  0  0  0  0
 43 44  1  0  0  0  0
 43 48  1  0  0  0  0
 44 45  2  0  0  0  0
 44102  1  0  0  0  0
 45 46  1  0  0  0  0
 45103  1  0  0  0  0
 46 47  2  0  0  0  0
 46104  1  0  0  0  0
 47 48  1  0  0  0  0
 49 50  1  0  0  0  0
 49 51  1  0  0  0  0
 50105  1  0  0  0  0
 50106  1  0  0  0  0
 50107  1  0  0  0  0
 51 52  1  0  0  0  0
 51108  1  0  0  0  0
 51109  1  0  0  0  0
 52 53  1  0  0  0  0
 52110  1  0  0  0  0
 52111  1  0  0  0  0
 53 54  1  0  0  0  0
 54112  1  0  0  0  0
 54113  1  0  0  0  0
 54114  1  0  0  0  0
M  END
$$$$
