
 OpenBabel09252519013D

 36 38  0  0  1  0  0  0  0  0999 V2000
    0.9544    0.0491    0.0742 H   0  0  0  0  0  0  0  0  0  0  0  0
    2.0244    0.0491    0.0742 C   0  0  0  0  0  0  0  0  0  0  0  0
    2.5594    0.4492   -0.7616 H   0  0  0  0  0  0  0  0  0  0  0  0
    2.7046   -0.4596    1.1369 C   0  0  0  0  0  0  0  0  0  0  0  0
    2.1696   -0.8597    1.9727 H   0  0  0  0  0  0  0  0  0  0  0  0
    4.2246   -0.4596    1.1369 C   0  0  1  0  0  0  0  0  0  0  0  0
    4.5813   -1.0298    0.3047 H   0  0  0  0  0  0  0  0  0  0  0  0
    4.7313    0.9692    1.0264 C   0  0  0  0  0  0  0  0  0  0  0  0
    4.3746    1.5395    1.8586 H   0  0  0  0  0  0  0  0  0  0  0  0
    5.8013    0.9692    1.0264 H   0  0  0  0  0  0  0  0  0  0  0  0
    4.3746    1.4048    0.1165 H   0  0  0  0  0  0  0  0  0  0  0  0
    4.7313   -1.0783    2.4295 C   0  0  1  0  0  0  0  0  0  0  0  0
    4.3746   -0.5081    3.2617 H   0  0  0  0  0  0  0  0  0  0  0  0
    4.2413   -2.4601    2.5363 N   0  0  0  0  0  0  0  0  0  0  0  0
    2.9918   -2.6917    2.5541 N   0  0  0  0  0  4  0  0  0  0  0  0
    1.7423   -2.9232    2.5720 N   0  0  0  0  0  0  0  0  0  0  0  0
    6.2513   -1.0783    2.4295 C   0  0  2  0  0  0  0  0  0  0  0  0
    7.0270   -1.5798    2.9695 H   0  0  0  0  0  0  0  0  0  0  0  0
    6.4794    0.0052    1.7064 C   0  0  1  0  0  0  0  0  0  0  0  0
    5.7734    0.5588    1.1233 H   0  0  0  0  0  0  0  0  0  0  0  0
    5.3152    0.1369    0.7924 C   0  0  1  0  0  0  0  0  0  0  0  0
    5.1607   -0.3737   -0.1352 H   0  0  0  0  0  0  0  0  0  0  0  0
    4.5172   -0.8795    1.0739 C   0  0  2  0  0  0  0  0  0  0  0  0
    4.9987   -1.6678    1.6141 H   0  0  0  0  0  0  0  0  0  0  0  0
    4.2848    0.3052    0.1504 C   0  0  0  0  0  0  0  0  0  0  0  0
    4.6889    1.1811    0.6135 H   0  0  0  0  0  0  0  0  0  0  0  0
    4.7982    0.1191   -0.7697 H   0  0  0  0  0  0  0  0  0  0  0  0
    3.2435    0.4537   -0.0459 H   0  0  0  0  0  0  0  0  0  0  0  0
    5.0787   -1.6114    2.0497 Fe  0  0  0  0  0  0  0  0  0  0  0  0
    6.3392   -2.9004    1.0125 C   0  0  0  0  0  0  0  0  0  0  0  0
    7.1292   -3.6227    0.4312 O   0  0  0  0  0  0  0  0  0  0  0  0
    6.4588   -2.9160    2.8980 C   0  0  0  0  0  0  0  0  0  0  0  0
    7.2151   -3.7166    3.4185 O   0  0  0  0  0  0  0  0  0  0  0  0
    3.1076   -1.0598    2.4199 C   0  0  0  0  0  0  0  0  0  0  0  0
    1.9111   -0.8704    2.5469 O   0  0  0  0  0  0  0  0  0  0  0  0
    1.3833   -3.8124    2.2242 H   0  0  0  0  0  0  0  0  0  0  0  0
  1  2  1  0  0  0  0
  2  3  1  0  0  0  0
  2  4  2  0  0  0  0
  4  5  1  0  0  0  0
  4  6  1  0  0  0  0
  6  7  1  6  0  0  0
  6  8  1  0  0  0  0
  6 12  1  0  0  0  0
  8  9  1  0  0  0  0
  8 10  1  0  0  0  0
  8 11  1  0  0  0  0
 12 13  1  1  0  0  0
 12 14  1  0  0  0  0
 12 17  1  0  0  0  0
 14 15  2  0  0  0  0
 15 16  2  0  0  0  0
 16 36  1  0  0  0  0
 17 19  2  0  0  0  0
 17 29  1  0  0  0  0
 17 18  1  1  0  0  0
 19 21  1  0  0  0  0
 19 29  1  0  0  0  0
 19 20  1  1  0  0  0
 21 23  2  0  0  0  0
 21 29  1  0  0  0  0
 21 22  1  1  0  0  0
 23 29  1  0  0  0  0
 23 24  1  6  0  0  0
 23 25  1  0  0  0  0
 25 26  1  0  0  0  0
 25 27  1  0  0  0  0
 25 28  1  0  0  0  0
 29 30  1  0  0  0  0
 29 32  1  0  0  0  0
 29 34  1  0  0  0  0
 30 31  3  0  0  0  0
 32 33  3  0  0  0  0
 34 35  3  0  0  0  0
M  END
$$$$
