
  --CCDC--092525    3D                              

 57 64  0  0  0  0  0  0  0  0999 V2000
    3.8444   -1.7583   -3.3076 H      0
    2.9313   -2.2688   -3.0129 C      0
    2.1256   -3.0024   -3.7894 C      0
    2.2695   -3.2089   -4.8444 H      0
    1.0830   -3.4697   -2.9760 N      0
    1.1634   -3.0313   -1.6246 C      0
    2.3671   -2.2949   -1.7347 N      0
    2.8468   -1.6552   -0.5261 C      0
    2.5688   -2.2441    0.3593 H      0
    3.9381   -1.5298   -0.5442 H      0
    2.1622   -0.3748   -0.5229 N      0
    2.6253    0.8457   -1.0196 C      0
    3.5759    1.0293   -1.5130 H      0
    1.6733    1.7416   -0.7402 C      0
    1.6992    2.8035   -0.9565 H      0
    0.6514    1.0517   -0.0757 N      0
    0.8753   -0.3381    0.0813 C      0
   -0.5212   -1.8434   -0.7758 Fe     0
   -0.0055   -2.8598    1.1103 N      0
    0.2808   -3.3814    2.0850 C      0
    0.6816   -4.0878    3.2953 C      0
    1.7663   -4.1546    3.3872 H      0
    0.2742   -5.0972    3.2942 H      0
    0.3018   -3.5870    4.1805 H      0
   -2.4600   -2.6348   -0.0952 N      0
   -3.4682   -3.0463    0.2588 C      0
   -4.7765   -3.5037    0.7146 C      0
   -4.8498   -4.5903    0.6855 H      0
   -5.5643   -3.0858    0.0925 H      0
   -4.9508   -3.1804    1.7424 H      0
   -1.5480    0.0803   -1.1935 C      0
   -1.7301    0.9208   -0.0535 N      0
   -3.0574    0.9997    0.3855 C      0
   -3.4223    1.5550    1.2421 H      0
   -3.8007    0.3218   -0.4966 C      0
   -4.8816    0.2190   -0.4892 H      0
   -2.9252   -0.1642   -1.4747 N      0
   -3.2977   -0.8558   -2.7051 C      0
   -4.3942   -0.9052   -2.7689 H      0
   -2.9536   -0.2650   -3.5644 H      0
   -2.7324   -2.2029   -2.7819 N      0
   -3.4388   -3.4104   -2.8913 C      0
   -4.5187   -3.5280   -2.8821 H      0
   -2.5331   -4.3808   -3.0683 C      0
   -2.7362   -5.4368   -3.2343 H      0
   -1.2810   -3.7541   -3.0646 N      0
   -1.3135   -2.3588   -2.7782 C      0
    0.0041   -4.3692   -3.3576 C      0
    0.0687   -4.5784   -4.4327 H      0
    0.0970   -5.3293   -2.8366 H      0
   -0.5667    1.6016    0.5072 C      0
   -0.5478    1.4804    1.5990 H      0
   -0.6240    2.6773    0.2869 H      0
    1.3329   -3.9025   -0.9700 H      0
    0.8790   -0.5131    1.1755 H      0
   -1.0725    0.6354   -2.0199 H      0
   -0.8330   -1.7672   -3.5743 H      0
  1  2  1
  2  3  2
  3  4  1
  3  5  1
  5  6  1
  6  7  1
  2  7  1
  7  8  1
  8  9  1
  8 10  1
  8 11  1
 11 12  1
 12 13  1
 12 14  2
 14 15  1
 14 16  1
 16 17  1
 11 17  1
 17 18  1
  6 18  1
 18 19  1
 19 20  3
 20 21  1
 21 22  1
 21 23  1
 21 24  1
 18 25  1
 25 26  3
 26 27  1
 27 28  1
 27 29  1
 27 30  1
 18 31  1
 31 32  1
 32 33  1
 33 34  1
 33 35  2
 35 36  1
 35 37  1
 31 37  1
 37 38  1
 38 39  1
 38 40  1
 38 41  1
 41 42  1
 42 43  1
 42 44  2
 44 45  1
 44 46  1
 46 47  1
 41 47  1
 18 47  1
 46 48  1
  5 48  1
 48 49  1
 48 50  1
 32 51  1
 16 51  1
 51 52  1
 51 53  1
  6 54  1
 17 55  1
 31 56  1
 47 57  1
M  END
$$$$
