
     RDKit          3D

 57 60  0  0  0  0  0  0  0  0999 V2000
   -5.0142    2.8454    0.7347 C   0  0  0  0  0  0  0  0  0  0  0  0
   -5.4381    1.7645   -0.0344 C   0  0  0  0  0  0  0  0  0  0  0  0
   -4.6027    0.6588   -0.2019 C   0  0  0  0  0  0  0  0  0  0  0  0
   -3.3277    0.6306    0.3790 C   0  0  0  0  0  0  0  0  0  0  0  0
   -2.5468   -0.5880    0.2020 N   0  0  0  0  0  0  0  0  0  0  0  0
   -1.1012   -0.4260    0.3266 C   0  0  0  0  0  0  0  0  0  0  0  0
   -0.4069   -0.0647   -0.7749 C   0  0  0  0  0  0  0  0  0  0  0  0
    1.0203    0.0490   -0.7616 C   0  0  0  0  0  0  0  0  0  0  0  0
    2.2197    0.1328   -0.7680 C   0  0  0  0  0  0  0  0  0  0  0  0
    3.6513    0.2188   -0.7795 C   0  0  0  0  0  0  0  0  0  0  0  0
    4.2651    1.0024   -1.7645 C   0  0  0  0  0  0  0  0  0  0  0  0
    5.6543    1.1025   -1.8160 C   0  0  0  0  0  0  0  0  0  0  0  0
    6.4328    0.4215   -0.8830 C   0  0  0  0  0  0  0  0  0  0  0  0
    5.8266   -0.3612    0.1041 C   0  0  0  0  0  0  0  0  0  0  0  0
    4.4328   -0.4738    0.1633 C   0  0  0  0  0  0  0  0  0  0  0  0
    3.7545   -1.2087    1.1023 O   0  0  0  0  0  0  0  0  0  0  0  0
    4.5127   -2.1086    1.8990 C   0  0  0  0  0  0  0  0  0  0  0  0
   -1.0713    0.2504   -2.5318 Si  0  0  0  0  0  4  0  0  0  0  0  0
    0.3314    0.1161   -3.8079 C   0  0  0  0  0  0  0  0  0  0  0  0
   -1.7712    1.9876   -2.6649 C   0  0  0  0  0  0  0  0  0  0  0  0
   -2.3573   -1.0274   -3.0241 C   0  0  0  0  0  0  0  0  0  0  0  0
   -0.6008   -0.8233    1.6640 C   0  0  0  0  0  0  0  0  0  0  0  0
    0.5700   -0.4899    2.3341 C   0  0  0  0  0  0  0  0  0  0  0  0
    0.7799   -0.9582    3.6403 C   0  0  0  0  0  0  0  0  0  0  0  0
   -0.1855   -1.7399    4.2901 C   0  0  0  0  0  0  0  0  0  0  0  0
   -1.3736   -2.0606    3.6415 C   0  0  0  0  0  0  0  0  0  0  0  0
   -1.5373   -1.5954    2.3451 C   0  0  0  0  0  0  0  0  0  0  0  0
   -2.9671   -1.8242    1.3700 S   0  0  0  0  0  6  0  0  0  0  0  0
   -4.1154   -1.4469    2.1655 O   0  0  0  0  0  0  0  0  0  0  0  0
   -2.8441   -3.1246    0.7453 O   0  0  0  0  0  0  0  0  0  0  0  0
   -2.9245    1.7084    1.1789 C   0  0  0  0  0  0  0  0  0  0  0  0
   -3.7613    2.8158    1.3446 C   0  0  0  0  0  0  0  0  0  0  0  0
   -5.6660    3.7049    0.8706 H   0  0  0  0  0  0  0  0  0  0  0  0
   -6.4228    1.7752   -0.4949 H   0  0  0  0  0  0  0  0  0  0  0  0
   -4.9534   -0.1867   -0.7886 H   0  0  0  0  0  0  0  0  0  0  0  0
    3.6624    1.5358   -2.4973 H   0  0  0  0  0  0  0  0  0  0  0  0
    6.1278    1.7101   -2.5829 H   0  0  0  0  0  0  0  0  0  0  0  0
    7.5167    0.5007   -0.9211 H   0  0  0  0  0  0  0  0  0  0  0  0
    6.4714   -0.8656    0.8160 H   0  0  0  0  0  0  0  0  0  0  0  0
    5.0902   -2.8023    1.2792 H   0  0  0  0  0  0  0  0  0  0  0  0
    3.8105   -2.7006    2.4940 H   0  0  0  0  0  0  0  0  0  0  0  0
    5.1604   -1.5643    2.5940 H   0  0  0  0  0  0  0  0  0  0  0  0
    1.0785    0.8986   -3.6471 H   0  0  0  0  0  0  0  0  0  0  0  0
   -0.0734    0.2323   -4.8177 H   0  0  0  0  0  0  0  0  0  0  0  0
    0.8188   -0.8610   -3.7418 H   0  0  0  0  0  0  0  0  0  0  0  0
   -2.6695    2.1086   -2.0571 H   0  0  0  0  0  0  0  0  0  0  0  0
   -1.0334    2.7258   -2.3363 H   0  0  0  0  0  0  0  0  0  0  0  0
   -2.0365    2.2116   -3.7029 H   0  0  0  0  0  0  0  0  0  0  0  0
   -2.5783   -0.9497   -4.0937 H   0  0  0  0  0  0  0  0  0  0  0  0
   -3.2943   -0.8906   -2.4809 H   0  0  0  0  0  0  0  0  0  0  0  0
   -1.9891   -2.0389   -2.8272 H   0  0  0  0  0  0  0  0  0  0  0  0
    1.3287    0.1402    1.8815 H   0  0  0  0  0  0  0  0  0  0  0  0
    1.7024   -0.7011    4.1572 H   0  0  0  0  0  0  0  0  0  0  0  0
   -0.0082   -2.0860    5.3057 H   0  0  0  0  0  0  0  0  0  0  0  0
   -2.1452   -2.6474    4.1297 H   0  0  0  0  0  0  0  0  0  0  0  0
   -1.9640    1.7149    1.6843 H   0  0  0  0  0  0  0  0  0  0  0  0
   -3.4382    3.6521    1.9595 H   0  0  0  0  0  0  0  0  0  0  0  0
  1  2  2  0
  2  3  1  0
  3  4  2  0
  4  5  1  0
  5  6  1  0
  6  7  2  0
  7  8  1  0
  8  9  3  0
  9 10  1  0
 10 11  2  0
 11 12  1  0
 12 13  2  0
 13 14  1  0
 14 15  2  0
 15 16  1  0
 16 17  1  0
  7 18  1  0
 18 19  1  0
 18 20  1  0
 18 21  1  0
  6 22  1  0
 22 23  2  0
 23 24  1  0
 24 25  2  0
 25 26  1  0
 26 27  2  0
 27 28  1  0
 28 29  2  0
 28 30  2  0
  4 31  1  0
 31 32  2  0
 32  1  1  0
 28  5  1  0
 15 10  1  0
 27 22  1  0
  1 33  1  0
  2 34  1  0
  3 35  1  0
 11 36  1  0
 12 37  1  0
 13 38  1  0
 14 39  1  0
 17 40  1  0
 17 41  1  0
 17 42  1  0
 19 43  1  0
 19 44  1  0
 19 45  1  0
 20 46  1  0
 20 47  1  0
 20 48  1  0
 21 49  1  0
 21 50  1  0
 21 51  1  0
 23 52  1  0
 24 53  1  0
 25 54  1  0
 26 55  1  0
 31 56  1  0
 32 57  1  0
M  END
