
     RDKit          3D

 57 60  0  0  0  0  0  0  0  0999 V2000
    3.7005    2.9805   -2.0750 C   0  0  0  0  0  0  0  0  0  0  0  0
    3.1939    1.8529   -1.3744 O   0  0  0  0  0  0  0  0  0  0  0  0
    3.8672    1.4555   -0.2468 C   0  0  0  0  0  0  0  0  0  0  0  0
    5.1034    1.9693    0.1619 C   0  0  0  0  0  0  0  0  0  0  0  0
    5.7186    1.4977    1.3261 C   0  0  0  0  0  0  0  0  0  0  0  0
    5.1074    0.5080    2.0916 C   0  0  0  0  0  0  0  0  0  0  0  0
    3.8786   -0.0147    1.6928 C   0  0  0  0  0  0  0  0  0  0  0  0
    3.2578    0.4528    0.5283 C   0  0  0  0  0  0  0  0  0  0  0  0
    1.9895   -0.1054    0.1616 C   0  0  0  0  0  0  0  0  0  0  0  0
    0.9162   -0.5610   -0.1295 C   0  0  0  0  0  0  0  0  0  0  0  0
   -0.3777   -1.0928   -0.4566 C   0  0  0  0  0  0  0  0  0  0  0  0
   -1.4349   -0.9376    0.3760 C   0  0  0  0  0  0  0  0  0  0  0  0
   -1.1282   -0.2627    1.6440 N   0  0  0  0  0  0  0  0  0  0  0  0
   -1.0951    1.1884    1.5741 C   0  0  0  0  0  0  0  0  0  0  0  0
   -0.1303    1.8396    2.3497 C   0  0  0  0  0  0  0  0  0  0  0  0
   -0.0716    3.2337    2.3807 C   0  0  0  0  0  0  0  0  0  0  0  0
   -0.9949    3.9863    1.6566 C   0  0  0  0  0  0  0  0  0  0  0  0
   -1.9808    3.3465    0.9081 C   0  0  0  0  0  0  0  0  0  0  0  0
   -2.0387    1.9510    0.8732 C   0  0  0  0  0  0  0  0  0  0  0  0
   -2.2505   -0.8807    2.8100 S   0  0  0  0  0  0  0  0  0  0  0  0
   -2.8947    0.1765    3.5593 O   0  0  0  0  0  0  0  0  0  0  0  0
   -1.6931   -2.0577    3.4428 O   0  0  0  0  0  0  0  0  0  0  0  0
   -3.3912   -1.4539    1.6173 C   0  0  0  0  0  0  0  0  0  0  0  0
   -4.7054   -1.8038    1.8955 C   0  0  0  0  0  0  0  0  0  0  0  0
   -5.5162   -2.1495    0.8210 C   0  0  0  0  0  0  0  0  0  0  0  0
   -5.0039   -2.1058   -0.4811 C   0  0  0  0  0  0  0  0  0  0  0  0
   -3.6728   -1.7276   -0.7225 C   0  0  0  0  0  0  0  0  0  0  0  0
   -2.8332   -1.4231    0.3408 C   0  0  0  0  0  0  0  0  0  0  0  0
   -0.2772   -2.0267   -2.0949 Si  0  0  0  0  0  4  0  0  0  0  0  0
    1.5325   -2.3182   -2.6123 C   0  0  0  0  0  0  0  0  0  0  0  0
   -1.0595   -1.0069   -3.4665 C   0  0  0  0  0  0  0  0  0  0  0  0
   -1.0452   -3.7366   -1.9798 C   0  0  0  0  0  0  0  0  0  0  0  0
    4.6741    2.7589   -2.5253 H   0  0  0  0  0  0  0  0  0  0  0  0
    3.0048    3.2092   -2.8876 H   0  0  0  0  0  0  0  0  0  0  0  0
    3.7540    3.8608   -1.4265 H   0  0  0  0  0  0  0  0  0  0  0  0
    5.6191    2.7357   -0.4065 H   0  0  0  0  0  0  0  0  0  0  0  0
    6.6791    1.9039    1.6333 H   0  0  0  0  0  0  0  0  0  0  0  0
    5.5854    0.1423    2.9969 H   0  0  0  0  0  0  0  0  0  0  0  0
    3.4034   -0.7871    2.2936 H   0  0  0  0  0  0  0  0  0  0  0  0
    0.5909    1.2593    2.9199 H   0  0  0  0  0  0  0  0  0  0  0  0
    0.6923    3.7296    2.9722 H   0  0  0  0  0  0  0  0  0  0  0  0
   -0.9518    5.0722    1.6850 H   0  0  0  0  0  0  0  0  0  0  0  0
   -2.7126    3.9332    0.3585 H   0  0  0  0  0  0  0  0  0  0  0  0
   -2.8296    1.4816    0.2989 H   0  0  0  0  0  0  0  0  0  0  0  0
   -5.0856   -1.7950    2.9124 H   0  0  0  0  0  0  0  0  0  0  0  0
   -6.5526   -2.4342    0.9886 H   0  0  0  0  0  0  0  0  0  0  0  0
   -5.6514   -2.3558   -1.3198 H   0  0  0  0  0  0  0  0  0  0  0  0
   -3.3435   -1.6663   -1.7506 H   0  0  0  0  0  0  0  0  0  0  0  0
    2.0475   -1.3673   -2.7752 H   0  0  0  0  0  0  0  0  0  0  0  0
    2.0639   -2.8855   -1.8428 H   0  0  0  0  0  0  0  0  0  0  0  0
    1.5630   -2.8892   -3.5456 H   0  0  0  0  0  0  0  0  0  0  0  0
   -1.1238   -1.5928   -4.3883 H   0  0  0  0  0  0  0  0  0  0  0  0
   -2.0633   -0.6639   -3.2083 H   0  0  0  0  0  0  0  0  0  0  0  0
   -0.4487   -0.1219   -3.6700 H   0  0  0  0  0  0  0  0  0  0  0  0
   -0.4971   -4.3498   -1.2567 H   0  0  0  0  0  0  0  0  0  0  0  0
   -0.9953   -4.2384   -2.9521 H   0  0  0  0  0  0  0  0  0  0  0  0
   -2.0927   -3.7134   -1.6759 H   0  0  0  0  0  0  0  0  0  0  0  0
  1  2  1  0
  2  3  1  0
  3  4  2  0
  4  5  1  0
  5  6  2  0
  6  7  1  0
  7  8  2  0
  8  9  1  0
  9 10  3  0
 10 11  1  0
 11 12  2  3
 12 13  1  0
 13 14  1  0
 14 15  2  0
 15 16  1  0
 16 17  2  0
 17 18  1  0
 18 19  2  0
 13 20  1  0
 20 21  2  0
 20 22  2  0
 20 23  1  0
 23 24  2  0
 24 25  1  0
 25 26  2  0
 26 27  1  0
 27 28  2  0
 11 29  1  0
 29 30  1  0
 29 31  1  0
 29 32  1  0
  8  3  1  0
 28 12  1  0
 19 14  1  0
 28 23  1  0
  1 33  1  0
  1 34  1  0
  1 35  1  0
  4 36  1  0
  5 37  1  0
  6 38  1  0
  7 39  1  0
 15 40  1  0
 16 41  1  0
 17 42  1  0
 18 43  1  0
 19 44  1  0
 24 45  1  0
 25 46  1  0
 26 47  1  0
 27 48  1  0
 30 49  1  0
 30 50  1  0
 30 51  1  0
 31 52  1  0
 31 53  1  0
 31 54  1  0
 32 55  1  0
 32 56  1  0
 32 57  1  0
M  END
