
  --CCDC--092525    3D                              

 34 33  0  0  0  0  0  0  0  0999 V2000
    0.0003    0.0000   -0.0001 Br     0
    1.6397    2.8410    0.0002 La     0
    2.9998    0.8327    2.2082 Br     0
    1.7866    1.5332   -3.0043 Br     0
   -0.7701    3.7364   -0.9758 N      0
   -1.7699    4.1074   -1.3810 C      0
   -3.0625    4.5527   -1.8825 C      0
   -0.0507    3.3211    2.1153 N      0
   -0.7520    3.5203    2.9928 C      0
   -1.6703    3.7502    4.0993 C      0
    2.7871    4.7240    1.6433 N      0
    3.2628    5.5052    2.3253 C      0
    3.8411    6.5244    3.1899 C      0
    2.0675    5.1393   -1.4478 N      0
    2.2430    6.0930   -2.0490 C      0
    2.4447    7.3285   -2.7930 C      0
    4.2778    2.4430   -0.6674 N      0
    5.3724    2.2777   -0.9443 C      0
    6.7629    2.0316   -1.3009 C      0
   -3.6947    3.7020   -2.1278 H      0
   -2.9410    5.1549   -2.7804 H      0
   -3.5785    5.1549   -1.1376 H      0
   -2.0161    2.8065    4.5160 H      0
   -2.5403    4.3133    3.7680 H      0
   -1.1842    4.3133    4.8933 H      0
    3.0607    7.1025    3.6803 H      0
    4.4611    7.2102    2.6163 H      0
    4.4611    6.0702    3.9599 H      0
    1.4906    7.7764   -3.0628 H      0
    3.0019    7.1405   -3.7083 H      0
    3.0019    8.0499   -2.1990 H      0
    6.9646    0.9637   -1.3526 H      0
    7.4332    2.4677   -0.5632 H      0
    6.9955    2.4677   -2.2701 H      0
  1  2  1
  2  3  1
  2  4  1
  2  5  1
  5  6  3
  6  7  1
  2  8  1
  8  9  3
  9 10  1
  2 11  1
 11 12  3
 12 13  1
  2 14  1
 14 15  3
 15 16  1
  2 17  1
 17 18  3
 18 19  1
  7 20  1
  7 21  1
  7 22  1
 10 23  1
 10 24  1
 10 25  1
 13 26  1
 13 27  1
 13 28  1
 16 29  1
 16 30  1
 16 31  1
 19 32  1
 19 33  1
 19 34  1
M  END
$$$$
