
 OpenBabel09252515523D

 53 64  0  0  1  0  0  0  0  0999 V2000
    1.0580    0.0399    0.0710 H   0  0  0  0  0  0  0  0  0  0  0  0
    2.1280    0.0399    0.0710 C   0  0  0  0  0  0  0  0  0  0  0  0
    2.4847   -0.4462    0.9550 H   0  0  0  0  0  0  0  0  0  0  0  0
    2.4847   -0.4827   -0.7919 H   0  0  0  0  0  0  0  0  0  0  0  0
    2.6347    1.4726    0.0411 C   0  0  0  0  0  0  0  0  0  0  0  0
    3.0550    2.6612    0.0162 N   0  0  0  0  0  4  0  0  0  0  0  0
    3.7783    4.7067   -0.0266 Ru  0  0  0  0  0  0  0  0  0  0  0  0
    3.4145    4.6980   -2.2165 C   0  0  0  0  0  0  0  0  0  0  0  0
    3.2149    4.6933   -3.4181 O   0  0  0  0  0  0  0  0  0  0  0  0
    4.6416    5.5768    0.8926 Br  0  0  0  0  0  2  0  0  0  0  0  0
    5.6519    4.7240    1.5362 Ru  0  3  0  0  0  0  0  0  0  0  0  0
    7.0929    3.0497    1.3155 C   0  0  0  0  0  0  0  0  0  0  0  0
    7.8801    2.1281    1.1946 O   0  0  0  0  0  0  0  0  0  0  0  0
    6.0449    6.8537    1.3997 N   0  0  0  0  0  4  0  0  0  0  0  0
    6.3646    8.0710    1.3217 C   0  0  0  0  0  0  0  0  0  0  0  0
    6.7500    9.5383    1.2276 C   0  0  0  0  0  0  0  0  0  0  0  0
    6.0057   10.1344    1.7129 H   0  0  0  0  0  0  0  0  0  0  0  0
    7.6955    9.6900    1.7050 H   0  0  0  0  0  0  0  0  0  0  0  0
    6.8202    9.8234    0.1987 H   0  0  0  0  0  0  0  0  0  0  0  0
    5.9433    2.1611    4.0689 C   0  0  2  0  0  0  0  0  0  0  0  0
    6.1703    1.3233    4.6946 H   0  0  0  0  0  0  0  0  0  0  0  0
    4.9216    3.1115    4.5234 C   0  0  1  0  0  0  0  0  0  0  0  0
    4.6174    2.9075    5.5287 H   0  0  0  0  0  0  0  0  0  0  0  0
    4.4846    3.8829    3.5111 C   0  0  1  0  0  0  0  0  0  0  0  0
    5.2103    3.5202    2.2401 C   0  0  1  0  0  0  0  0  0  0  0  0
    6.4298    2.7006    2.7046 C   0  0  2  0  0  0  0  0  0  0  0  0
    7.3021    2.0845    2.6390 H   0  0  0  0  0  0  0  0  0  0  0  0
    4.3222    2.6741    1.3254 C   0  0  0  0  0  0  0  0  0  0  0  0
    3.8874    1.2714    0.9336 C   0  0  0  0  0  0  0  0  0  0  0  0
    3.6669    1.2722   -0.1134 H   0  0  0  0  0  0  0  0  0  0  0  0
    4.3972    0.3662    1.1900 H   0  0  0  0  0  0  0  0  0  0  0  0
    2.9758    1.3372    1.4901 H   0  0  0  0  0  0  0  0  0  0  0  0
    5.7097    2.0558    1.3795 C   0  0  0  0  0  0  0  0  0  0  0  0
    5.9004    1.4685    0.5056 H   0  0  0  0  0  0  0  0  0  0  0  0
    6.3946    2.8771    1.4138 H   0  0  0  0  0  0  0  0  0  0  0  0
    5.8364    1.4490    2.2516 H   0  0  0  0  0  0  0  0  0  0  0  0
    3.1876    3.5456    0.7778 C   0  0  1  0  0  0  0  0  0  0  0  0
    2.7125    1.1736    1.4735 C   0  0  2  0  0  0  0  0  0  0  0  0
    2.4733    0.1357    1.5762 H   0  0  0  0  0  0  0  0  0  0  0  0
    2.9780    2.5529    2.0542 C   0  0  2  0  0  0  0  0  0  0  0  0
    3.8437    2.4612    2.6763 H   0  0  0  0  0  0  0  0  0  0  0  0
    1.7853    2.9892    2.8893 C   0  0  2  0  0  0  0  0  0  0  0  0
    1.0100    2.4301    3.3702 H   0  0  0  0  0  0  0  0  0  0  0  0
    2.0507    4.3686    3.4701 C   0  0  1  0  0  0  0  0  0  0  0  0
    3.2918    4.3191    4.3462 C   0  0  0  0  0  0  0  0  0  0  0  0
    2.5003    4.1845    5.6369 C   0  0  0  0  0  0  0  0  0  0  0  0
    1.8490    5.0261    5.7485 H   0  0  0  0  0  0  0  0  0  0  0  0
    1.9204    3.2857    5.6103 H   0  0  0  0  0  0  0  0  0  0  0  0
    3.1790    4.1467    6.4633 H   0  0  0  0  0  0  0  0  0  0  0  0
    4.4801    5.0569    4.9414 C   0  0  0  0  0  0  0  0  0  0  0  0
    4.9770    5.5639    4.1408 H   0  0  0  0  0  0  0  0  0  0  0  0
    4.2327    5.7595    5.7095 H   0  0  0  0  0  0  0  0  0  0  0  0
    5.1257    4.3034    5.3416 H   0  0  0  0  0  0  0  0  0  0  0  0
  1  2  1  0  0  0  0
  2  3  1  0  0  0  0
  2  4  1  0  0  0  0
  2  5  1  0  0  0  0
  5  6  3  0  0  0  0
  6  7  1  0  0  0  0
  7 10  1  0  0  0  0
  7 37  1  0  0  0  0
  7 38  1  0  0  0  0
  7 40  1  0  0  0  0
  7 42  1  0  0  0  0
  7 44  1  0  0  0  0
  7  8  1  0  0  0  0
  8  9  3  0  0  0  0
 10 11  1  0  0  0  0
 11 20  1  0  0  0  0
 11 22  1  0  0  0  0
 11 24  1  0  0  0  0
 11 25  1  0  0  0  0
 11 26  1  0  0  0  0
 11 12  1  0  0  0  0
 11 14  1  0  0  0  0
 12 13  3  0  0  0  0
 14 15  3  0  0  0  0
 15 16  1  0  0  0  0
 16 17  1  0  0  0  0
 16 18  1  0  0  0  0
 16 19  1  0  0  0  0
 20 22  1  0  0  0  0
 20 26  1  0  0  0  0
 20 21  1  6  0  0  0
 22 24  1  0  0  0  0
 22 23  1  6  0  0  0
 24 25  1  0  0  0  0
 24 45  1  1  0  0  0
 25 26  1  0  0  0  0
 25 28  1  1  0  0  0
 26 27  1  1  0  0  0
 28 29  1  0  0  0  0
 28 33  1  0  0  0  0
 29 30  1  0  0  0  0
 29 31  1  0  0  0  0
 29 32  1  0  0  0  0
 33 34  1  0  0  0  0
 33 35  1  0  0  0  0
 33 36  1  0  0  0  0
 37 28  1  6  0  0  0
 37 38  1  0  0  0  0
 37 44  1  0  0  0  0
 38 40  1  0  0  0  0
 38 39  1  6  0  0  0
 40 42  1  0  0  0  0
 40 41  1  1  0  0  0
 42 44  1  0  0  0  0
 42 43  1  1  0  0  0
 44 45  1  6  0  0  0
 45 46  1  0  0  0  0
 45 50  1  0  0  0  0
 46 47  1  0  0  0  0
 46 48  1  0  0  0  0
 46 49  1  0  0  0  0
 50 51  1  0  0  0  0
 50 52  1  0  0  0  0
 50 53  1  0  0  0  0
M  CHG  1  11   1
M  END
$$$$
