
 OpenBabel09252519353D

 36 38  0  0  1  0  0  0  0  0999 V2000
    1.0659    0.0660    0.0360 H   0  0  0  0  0  0  0  0  0  0  0  0
    2.1359    0.0660    0.0360 C   0  0  0  0  0  0  0  0  0  0  0  0
    2.6709   -0.4557   -0.7298 H   0  0  0  0  0  0  0  0  0  0  0  0
    2.8161    0.7293    1.0097 C   0  0  0  0  0  0  0  0  0  0  0  0
    2.2811    1.2511    1.7755 H   0  0  0  0  0  0  0  0  0  0  0  0
    4.3361    0.7293    1.0097 C   0  0  1  0  0  0  0  0  0  0  0  0
    4.6928   -0.2767    1.0847 H   0  0  0  0  0  0  0  0  0  0  0  0
    4.8428    1.3516   -0.2812 C   0  0  0  0  0  0  0  0  0  0  0  0
    4.4861    2.3576   -0.3563 H   0  0  0  0  0  0  0  0  0  0  0  0
    5.9128    1.3516   -0.2812 H   0  0  0  0  0  0  0  0  0  0  0  0
    4.4861    0.7836   -1.1150 H   0  0  0  0  0  0  0  0  0  0  0  0
    4.8428    1.5362    2.1940 C   0  0  1  0  0  0  0  0  0  0  0  0
    4.4861    2.5422    2.1190 H   0  0  0  0  0  0  0  0  0  0  0  0
    4.3528    0.9344    3.4425 N   0  0  0  0  0  0  0  0  0  0  0  0
    3.1033    0.8336    3.6517 N   0  0  0  0  0  4  0  0  0  0  0  0
    1.8538    0.7327    3.8609 N   0  0  0  0  0  0  0  0  0  0  0  0
    6.3628    1.5362    2.1940 C   0  0  2  0  0  0  0  0  0  0  0  0
    7.2354    0.9170    2.1863 H   0  0  0  0  0  0  0  0  0  0  0  0
    7.1332    0.6642    2.8226 C   0  0  1  0  0  0  0  0  0  0  0  0
    7.5182    1.1905    1.9742 H   0  0  0  0  0  0  0  0  0  0  0  0
    8.5319    1.0712    2.5287 C   0  0  1  0  0  0  0  0  0  0  0  0
    8.3194    1.7964    3.2862 H   0  0  0  0  0  0  0  0  0  0  0  0
    8.4428    2.1383    1.7526 C   0  0  2  0  0  0  0  0  0  0  0  0
    9.2686    2.6856    1.3482 H   0  0  0  0  0  0  0  0  0  0  0  0
    9.2174    1.6159    2.9515 C   0  0  0  0  0  0  0  0  0  0  0  0
   10.2750    1.6223    2.7889 H   0  0  0  0  0  0  0  0  0  0  0  0
    8.9824    2.2323    3.7939 H   0  0  0  0  0  0  0  0  0  0  0  0
    8.8918    0.6143    3.1406 H   0  0  0  0  0  0  0  0  0  0  0  0
    7.1451    2.4216    1.5558 Fe  0  0  0  0  0  0  0  0  0  0  0  0
    8.1628    4.1257    2.1777 C   0  0  0  0  0  0  0  0  0  0  0  0
    8.7588    5.1236    2.5419 O   0  0  0  0  0  0  0  0  0  0  0  0
    5.4238    1.2633    1.7044 C   0  0  0  0  0  0  0  0  0  0  0  0
    4.4158    0.5850    1.7915 O   0  0  0  0  0  0  0  0  0  0  0  0
    7.2791    0.7266    2.7539 C   0  0  0  0  0  0  0  0  0  0  0  0
    7.3576   -0.2660    3.4555 O   0  0  0  0  0  0  0  0  0  0  0  0
    1.2259    1.4820    3.5699 H   0  0  0  0  0  0  0  0  0  0  0  0
  1  2  1  0  0  0  0
  2  3  1  0  0  0  0
  2  4  2  0  0  0  0
  4  5  1  0  0  0  0
  4  6  1  0  0  0  0
  6  7  1  1  0  0  0
  6  8  1  0  0  0  0
  6 12  1  0  0  0  0
  8  9  1  0  0  0  0
  8 10  1  0  0  0  0
  8 11  1  0  0  0  0
 12 13  1  6  0  0  0
 12 14  1  0  0  0  0
 12 17  1  0  0  0  0
 14 15  2  0  0  0  0
 15 16  2  0  0  0  0
 16 36  1  0  0  0  0
 17 18  1  6  0  0  0
 17 19  2  0  0  0  0
 17 29  1  0  0  0  0
 19 20  1  1  0  0  0
 19 21  1  0  0  0  0
 19 29  1  0  0  0  0
 21 22  1  1  0  0  0
 21 23  2  0  0  0  0
 21 29  1  0  0  0  0
 23 29  1  0  0  0  0
 23 25  1  0  0  0  0
 23 24  1  6  0  0  0
 25 26  1  0  0  0  0
 25 27  1  0  0  0  0
 25 28  1  0  0  0  0
 29 30  1  0  0  0  0
 29 32  1  0  0  0  0
 29 34  1  0  0  0  0
 30 31  3  0  0  0  0
 32 33  3  0  0  0  0
 34 35  3  0  0  0  0
M  END
$$$$
