
  --CCDC--092525    3D                              

 36 38  0  0  0  0  0  0  0  0999 V2000
    1.6798   -1.6568   -1.6119 H      0
    2.1708   -0.7449   -1.2875 C      0
    3.1935   -0.5472   -1.5897 H      0
    1.5336    0.1081   -0.5315 C      0
    2.0742    1.0015   -0.2370 H      0
    0.1258   -0.0270   -0.0389 C      0
   -0.2368   -0.9773   -0.4792 H      0
   -0.0123   -0.2268    1.4713 C      0
    0.5464   -1.1018    1.7965 H      0
   -1.0561   -0.3741    1.7421 H      0
    0.3592    0.6283    2.0294 H      0
   -0.7295    1.1945   -0.4439 C      0
   -1.7459    0.9841   -0.0578 H      0
   -0.1654    2.4911    0.0487 N      0
   -0.8682    3.4007    0.5048 N      0
   -1.3511    4.4056    1.0304 N      0
   -0.9039    1.4142   -1.9285 C      0
    0.0278    1.3838   -2.5291 H      0
   -1.7997    2.4845   -2.3260 C      0
   -2.2791    2.8594   -1.4007 H      0
   -2.9792    2.5546   -3.4976 C      0
   -3.8591    2.9772   -2.9757 H      0
   -3.4908    1.5570   -4.4253 C      0
   -2.9331    1.5178   -5.3841 H      0
   -4.9966    1.4434   -4.5504 C      0
   -5.4760    1.4870   -3.5744 H      0
   -5.2823    0.5055   -5.0220 H      0
   -5.3920    2.2588   -5.1533 H      0
   -2.6015    0.5189   -2.8156 Fe     0
   -4.4566   -0.4108   -2.0853 C      0
   -5.4186   -0.8897   -1.7051 O      0
   -2.1892   -1.2144   -1.5265 C      0
   -1.9761   -2.1129   -0.8606 O      0
   -2.1166   -1.1909   -4.1136 C      0
   -1.8655   -2.0767   -4.7860 O      0
   -2.3296    4.5417    0.7766 H      0
  1  2  1
  2  3  1
  2  4  2
  4  5  1
  4  6  1
  6  7  1
  6  8  1
  8  9  1
  8 10  1
  8 11  1
  6 12  1
 12 13  1
 12 14  1
 14 15  2
 15 16  2
 12 17  1
 17 18  1
 17 19  2
 19 20  1
 19 21  1
 21 22  1
 21 23  2
 23 24  1
 23 25  1
 25 26  1
 25 27  1
 25 28  1
 23 29  1
 21 29  1
 19 29  1
 17 29  1
 29 30  1
 30 31  3
 29 32  1
 32 33  3
 29 34  1
 34 35  3
 16 36  1
M  END
$$$$
