
     RDKit          3D

 57 60  0  0  0  0  0  0  0  0999 V2000
   -4.6321    2.8037    1.5866 C   0  0  0  0  0  0  0  0  0  0  0  0
   -3.3320    2.6018    2.0463 C   0  0  0  0  0  0  0  0  0  0  0  0
   -2.6263    1.4527    1.6793 C   0  0  0  0  0  0  0  0  0  0  0  0
   -3.2103    0.5062    0.8271 C   0  0  0  0  0  0  0  0  0  0  0  0
   -2.5728   -0.7468    0.4432 N   0  0  0  0  0  0  0  0  0  0  0  0
   -1.1145   -0.7261    0.4237 C   0  0  0  0  0  0  0  0  0  0  0  0
   -0.4998   -0.3407   -0.7157 C   0  0  0  0  0  0  0  0  0  0  0  0
    0.9237   -0.4029   -0.8524 C   0  0  0  0  0  0  0  0  0  0  0  0
    2.1184   -0.4657   -0.9719 C   0  0  0  0  0  0  0  0  0  0  0  0
    3.5440   -0.5465   -1.1027 C   0  0  0  0  0  0  0  0  0  0  0  0
    4.0868   -1.6071   -1.8379 C   0  0  0  0  0  0  0  0  0  0  0  0
    5.4673   -1.7235   -1.9871 C   0  0  0  0  0  0  0  0  0  0  0  0
    6.3076   -0.7799   -1.4026 C   0  0  0  0  0  0  0  0  0  0  0  0
    5.7723    0.2818   -0.6659 C   0  0  0  0  0  0  0  0  0  0  0  0
    4.3875    0.4099   -0.5092 C   0  0  0  0  0  0  0  0  0  0  0  0
    3.7742    1.4099    0.2021 O   0  0  0  0  0  0  0  0  0  0  0  0
    4.5967    2.4586    0.6996 C   0  0  0  0  0  0  0  0  0  0  0  0
   -1.2944    0.2313   -2.3464 Si  0  0  0  0  0  4  0  0  0  0  0  0
   -1.8417    2.0241   -2.2192 C   0  0  0  0  0  0  0  0  0  0  0  0
   -2.7348   -0.8718   -2.8363 C   0  0  0  0  0  0  0  0  0  0  0  0
   -0.0390    0.1370   -3.7706 C   0  0  0  0  0  0  0  0  0  0  0  0
   -0.5239   -1.2960    1.6571 C   0  0  0  0  0  0  0  0  0  0  0  0
    0.7302   -1.1172    2.2298 C   0  0  0  0  0  0  0  0  0  0  0  0
    1.0236   -1.7306    3.4574 C   0  0  0  0  0  0  0  0  0  0  0  0
    0.0619   -2.5002    4.1282 C   0  0  0  0  0  0  0  0  0  0  0  0
   -1.2073   -2.6617    3.5811 C   0  0  0  0  0  0  0  0  0  0  0  0
   -1.4551   -2.0571    2.3572 C   0  0  0  0  0  0  0  0  0  0  0  0
   -2.9882   -2.0656    1.5207 S   0  0  0  0  0  6  0  0  0  0  0  0
   -3.0420   -3.2950    0.7588 O   0  0  0  0  0  0  0  0  0  0  0  0
   -4.0167   -1.6876    2.4657 O   0  0  0  0  0  0  0  0  0  0  0  0
   -4.5285    0.7060    0.3965 C   0  0  0  0  0  0  0  0  0  0  0  0
   -5.2333    1.8531    0.7660 C   0  0  0  0  0  0  0  0  0  0  0  0
   -5.1814    3.6946    1.8782 H   0  0  0  0  0  0  0  0  0  0  0  0
   -2.8696    3.3357    2.7001 H   0  0  0  0  0  0  0  0  0  0  0  0
   -1.6222    1.3232    2.0711 H   0  0  0  0  0  0  0  0  0  0  0  0
    3.4349   -2.3478   -2.2942 H   0  0  0  0  0  0  0  0  0  0  0  0
    5.8847   -2.5498   -2.5564 H   0  0  0  0  0  0  0  0  0  0  0  0
    7.3849   -0.8704   -1.5181 H   0  0  0  0  0  0  0  0  0  0  0  0
    6.4655    0.9890   -0.2249 H   0  0  0  0  0  0  0  0  0  0  0  0
    3.9445    3.1994    1.1707 H   0  0  0  0  0  0  0  0  0  0  0  0
    5.2849    2.0877    1.4655 H   0  0  0  0  0  0  0  0  0  0  0  0
    5.1369    2.9614   -0.1107 H   0  0  0  0  0  0  0  0  0  0  0  0
   -2.6698    2.1446   -1.5196 H   0  0  0  0  0  0  0  0  0  0  0  0
   -2.1718    2.3917   -3.1971 H   0  0  0  0  0  0  0  0  0  0  0  0
   -1.0132    2.6568   -1.8827 H   0  0  0  0  0  0  0  0  0  0  0  0
   -2.4137   -1.9171   -2.8814 H   0  0  0  0  0  0  0  0  0  0  0  0
   -3.5657   -0.7992   -2.1292 H   0  0  0  0  0  0  0  0  0  0  0  0
   -3.1121   -0.5877   -3.8253 H   0  0  0  0  0  0  0  0  0  0  0  0
   -0.5245    0.4124   -4.7122 H   0  0  0  0  0  0  0  0  0  0  0  0
    0.7929    0.8268   -3.5999 H   0  0  0  0  0  0  0  0  0  0  0  0
    0.3548   -0.8790   -3.8688 H   0  0  0  0  0  0  0  0  0  0  0  0
    1.4872   -0.4946    1.7639 H   0  0  0  0  0  0  0  0  0  0  0  0
    2.0092   -1.5972    3.8996 H   0  0  0  0  0  0  0  0  0  0  0  0
    0.3073   -2.9615    5.0819 H   0  0  0  0  0  0  0  0  0  0  0  0
   -1.9755   -3.2339    4.0911 H   0  0  0  0  0  0  0  0  0  0  0  0
   -5.0153   -0.0369   -0.2308 H   0  0  0  0  0  0  0  0  0  0  0  0
   -6.2542    1.9976    0.4207 H   0  0  0  0  0  0  0  0  0  0  0  0
  1  2  2  0
  2  3  1  0
  3  4  2  0
  4  5  1  0
  5  6  1  0
  6  7  2  0
  7  8  1  0
  8  9  3  0
  9 10  1  0
 10 11  2  0
 11 12  1  0
 12 13  2  0
 13 14  1  0
 14 15  2  0
 15 16  1  0
 16 17  1  0
  7 18  1  0
 18 19  1  0
 18 20  1  0
 18 21  1  0
  6 22  1  0
 22 23  2  0
 23 24  1  0
 24 25  2  0
 25 26  1  0
 26 27  2  0
 27 28  1  0
 28 29  2  0
 28 30  2  0
  4 31  1  0
 31 32  2  0
 32  1  1  0
 28  5  1  0
 15 10  1  0
 27 22  1  0
  1 33  1  0
  2 34  1  0
  3 35  1  0
 11 36  1  0
 12 37  1  0
 13 38  1  0
 14 39  1  0
 17 40  1  0
 17 41  1  0
 17 42  1  0
 19 43  1  0
 19 44  1  0
 19 45  1  0
 20 46  1  0
 20 47  1  0
 20 48  1  0
 21 49  1  0
 21 50  1  0
 21 51  1  0
 23 52  1  0
 24 53  1  0
 25 54  1  0
 26 55  1  0
 31 56  1  0
 32 57  1  0
M  END
