
     RDKit          3D

 28 28  0  0  0  0  0  0  0  0999 V2000
    0.5296    0.5791   -0.1088 C   0  0  0  0  0  0  0  0  0  0  0  0
    1.9824    0.4795   -0.3473 C   0  0  0  0  0  0  0  0  0  0  0  0
    2.8194    1.5308   -0.1258 C   0  0  0  0  0  0  0  0  0  0  0  0
    4.2265    1.4272   -0.3412 C   0  0  0  0  0  0  0  0  0  0  0  0
    5.3691    1.3280   -0.5189 N   0  0  0  0  0  0  0  0  0  0  0  0
    2.3574    2.7956    0.3470 C   0  0  0  0  0  0  0  0  0  0  0  0
    1.9668    3.8203    0.7274 N   0  0  0  0  0  0  0  0  0  0  0  0
    2.5101   -0.8534   -0.8786 C   0  0  0  0  0  0  0  0  0  0  0  0
    2.7659   -1.8638    0.2337 C   0  0  0  0  0  0  0  0  0  0  0  0
   -0.3874   -0.3901   -0.2758 C   0  0  0  0  0  0  0  0  0  0  0  0
   -1.8211   -0.2036   -0.0012 C   0  0  0  0  0  0  0  0  0  0  0  0
   -2.5124    0.9519   -0.3962 C   0  0  0  0  0  0  0  0  0  0  0  0
   -3.8805    1.0793   -0.1429 C   0  0  0  0  0  0  0  0  0  0  0  0
   -4.5590    0.0483    0.4945 C   0  0  0  0  0  0  0  0  0  0  0  0
   -5.8707    0.1704    0.7352 F   0  0  0  0  0  0  0  0  0  0  0  0
   -3.8970   -1.1104    0.8801 C   0  0  0  0  0  0  0  0  0  0  0  0
   -2.5292   -1.2390    0.6273 C   0  0  0  0  0  0  0  0  0  0  0  0
    0.1618    1.5382    0.2589 H   0  0  0  0  0  0  0  0  0  0  0  0
    1.8226   -1.2749   -1.6215 H   0  0  0  0  0  0  0  0  0  0  0  0
    3.4422   -0.7156   -1.4391 H   0  0  0  0  0  0  0  0  0  0  0  0
    1.8530   -2.0970    0.7903 H   0  0  0  0  0  0  0  0  0  0  0  0
    3.5099   -1.4888    0.9444 H   0  0  0  0  0  0  0  0  0  0  0  0
    3.1476   -2.7985   -0.1897 H   0  0  0  0  0  0  0  0  0  0  0  0
   -0.1210   -1.3904   -0.6033 H   0  0  0  0  0  0  0  0  0  0  0  0
   -1.9988    1.7597   -0.9124 H   0  0  0  0  0  0  0  0  0  0  0  0
   -4.4192    1.9725   -0.4431 H   0  0  0  0  0  0  0  0  0  0  0  0
   -4.4478   -1.9050    1.3730 H   0  0  0  0  0  0  0  0  0  0  0  0
   -2.0205   -2.1504    0.9339 H   0  0  0  0  0  0  0  0  0  0  0  0
  1  2  1  0
  2  3  2  0
  3  4  1  0
  4  5  3  0
  3  6  1  0
  6  7  3  0
  2  8  1  0
  8  9  1  0
  1 10  2  0
 10 11  1  0
 11 12  2  0
 12 13  1  0
 13 14  2  0
 14 15  1  0
 14 16  1  0
 16 17  2  0
 17 11  1  0
  1 18  1  0
  8 19  1  0
  8 20  1  0
  9 21  1  0
  9 22  1  0
  9 23  1  0
 10 24  1  0
 12 25  1  0
 13 26  1  0
 16 27  1  0
 17 28  1  0
M  END
