
  --CCDC--092525    3D                              

 57 64  0  0  0  0  0  0  0  0999 V2000
    3.6091    2.9746    1.6577 C      0
    3.9260    2.0140    0.6104 C      0
    4.1441    1.2517   -0.2102 N      0
    4.5646   -0.2180   -1.7925 Fe     1
    5.3114    1.6831   -2.6119 N      0
    5.7218    2.6718   -3.0084 C      0
    6.2340    3.9513   -3.4798 C      0
    5.1865   -0.9153   -3.7966 C      0
    4.8051    0.1023   -4.7257 N      0
    3.3904    0.4185   -4.8430 C      0
    2.6990   -0.6557   -4.1585 N      0
    2.1612   -1.8116   -4.7310 C      0
    1.6973   -2.5491   -3.7206 C      0
    1.9645   -1.8360   -2.5475 N      0
    1.5834   -2.2354   -1.2054 C      0
    2.7631   -2.4852   -0.3966 N      0
    3.0992   -3.6502    0.3028 C      0
    4.2142   -3.3795    0.9926 C      0
    4.5387   -2.0460    0.7220 N      0
    5.7241   -1.3115    1.1144 C      0
    6.5433   -1.7793    0.0204 N      0
    7.2107   -3.0043   -0.0291 C      0
    7.6335   -3.1481   -1.2850 C      0
    7.2160   -2.0147   -1.9920 N      0
    7.4803   -1.8030   -3.4077 C      0
    6.5832   -0.8673   -4.0643 N      0
    6.9701    0.0835   -5.0152 C      0
    5.8571    0.6855   -5.4356 C      0
    6.5412   -1.0451   -1.1908 C      0
    3.6396   -1.4009   -0.1525 C      0
    2.5915   -0.5733   -2.7467 C      0
    3.3616    3.9439    1.2293 H      0
    4.4536    3.1072    2.3301 H      0
    2.7580    2.6369    2.2448 H      0
    5.4822    4.7310   -3.3774 H      0
    6.5207    3.8910   -4.5277 H      0
    7.1098    4.2485   -2.9065 H      0
    3.1692    1.3828   -4.3691 H      0
    3.0924    0.4588   -5.8980 H      0
    2.1395   -2.0668   -5.7855 H      0
    1.2099   -3.5157   -3.7940 H      0
    0.9887   -1.4369   -0.7456 H      0
    0.9638   -3.1395   -1.2478 H      0
    2.5588   -4.5908    0.2909 H      0
    4.7697   -4.0664    1.6225 H      0
    5.5716   -0.2263    1.0800 H      0
    6.1089   -1.6296    2.0909 H      0
    7.3179   -3.7214    0.7778 H      0
    8.1765   -3.9962   -1.6892 H      0
    8.5106   -1.4446   -3.5243 H      0
    7.4132   -2.7686   -3.9243 H      0
    7.9798    0.2784   -5.3614 H      0
    5.7826    1.4695   -6.1819 H      0
    4.7650   -1.9007   -4.0493 H      0
    7.2243   -0.1910   -1.0649 H      0
    3.0635   -0.6798    0.4479 H      0
    1.8940    0.2330   -2.4717 H      0
  1  2  1
  2  3  3
  3  4  1
  4  5  1
  5  6  3
  6  7  1
  4  8  1
  8  9  1
  9 10  1
 10 11  1
 11 12  1
 12 13  2
 13 14  1
 14 15  1
 15 16  1
 16 17  1
 17 18  2
 18 19  1
 19 20  1
 20 21  1
 21 22  1
 22 23  2
 23 24  1
 24 25  1
 25 26  1
  8 26  1
 26 27  1
 27 28  2
  9 28  1
 24 29  1
  4 29  1
 21 29  1
 19 30  1
  4 30  1
 16 30  1
 14 31  1
  4 31  1
 11 31  1
  1 32  1
  1 33  1
  1 34  1
  7 35  1
  7 36  1
  7 37  1
 10 38  1
 10 39  1
 12 40  1
 13 41  1
 15 42  1
 15 43  1
 17 44  1
 18 45  1
 20 46  1
 20 47  1
 22 48  1
 23 49  1
 25 50  1
 25 51  1
 27 52  1
 28 53  1
  8 54  1
 29 55  1
 30 56  1
 31 57  1
M  CHG  1   4   3
M  END
$$$$
