
     RDKit          3D

 26 26  0  0  0  0  0  0  0  0999 V2000
   -3.4266   -1.4056   -0.8180 C   0  0  0  0  0  0  0  0  0  0  0  0
   -2.8414   -0.0591   -0.4099 C   0  0  0  0  0  0  0  0  0  0  0  0
   -3.4615    0.4257    0.8956 C   0  0  0  0  0  0  0  0  0  0  0  0
   -1.4253   -0.2501   -0.2289 O   0  0  0  0  0  0  0  0  0  0  0  0
   -0.6517    0.8536   -0.3713 C   0  0  0  0  0  0  0  0  0  0  0  0
   -1.0423    1.9787   -0.6366 O   0  0  0  0  0  0  0  0  0  0  0  0
    0.7829    0.5159   -0.1557 C   0  0  0  0  0  0  0  0  0  0  0  0
    1.7284    1.5480   -0.2640 C   0  0  0  0  0  0  0  0  0  0  0  0
    3.0894    1.2888   -0.0714 C   0  0  0  0  0  0  0  0  0  0  0  0
    3.5074   -0.0134    0.2320 C   0  0  0  0  0  0  0  0  0  0  0  0
    2.5734   -1.0526    0.3430 C   0  0  0  0  0  0  0  0  0  0  0  0
    1.2133   -0.7849    0.1488 C   0  0  0  0  0  0  0  0  0  0  0  0
    4.9352   -0.2922    0.4355 N   0  0  0  0  0  0  0  0  0  0  0  0
    5.2616   -1.4574    0.7021 O   0  0  0  0  0  0  0  0  0  0  0  0
    5.7279    0.6540    0.3285 O   0  0  0  0  0  0  0  0  0  0  0  0
   -3.2270   -2.1686   -0.0573 H   0  0  0  0  0  0  0  0  0  0  0  0
   -4.5075   -1.3392   -0.9744 H   0  0  0  0  0  0  0  0  0  0  0  0
   -2.9608   -1.7573   -1.7450 H   0  0  0  0  0  0  0  0  0  0  0  0
   -3.0319    0.6610   -1.2151 H   0  0  0  0  0  0  0  0  0  0  0  0
   -4.5466    0.5325    0.8030 H   0  0  0  0  0  0  0  0  0  0  0  0
   -3.2449   -0.2700    1.7138 H   0  0  0  0  0  0  0  0  0  0  0  0
   -3.0445    1.3943    1.1897 H   0  0  0  0  0  0  0  0  0  0  0  0
    1.4064    2.5620   -0.4999 H   0  0  0  0  0  0  0  0  0  0  0  0
    3.8019    2.1069   -0.1611 H   0  0  0  0  0  0  0  0  0  0  0  0
    2.8841   -2.0691    0.5783 H   0  0  0  0  0  0  0  0  0  0  0  0
    0.5002   -1.6021    0.2384 H   0  0  0  0  0  0  0  0  0  0  0  0
  1  2  1  0
  2  3  1  0
  2  4  1  0
  4  5  1  0
  5  6  2  0
  5  7  1  0
  7  8  2  0
  8  9  1  0
  9 10  2  0
 10 11  1  0
 11 12  2  0
 10 13  1  0
 13 14  1  0
 13 15  2  0
 12  7  1  0
  1 16  1  0
  1 17  1  0
  1 18  1  0
  2 19  1  0
  3 20  1  0
  3 21  1  0
  3 22  1  0
  8 23  1  0
  9 24  1  0
 11 25  1  0
 12 26  1  0
M  CHG  2  13   1  14  -1
M  END
