
  --CCDC--092525    3D                              

 62 63  0  0  0  0  0  0  0  0999 V2000
    0.0214   -0.0417   -0.0359 C      0
    1.9510   -0.0463   -0.6983 Pt     0
    1.6613    1.7052   -1.7032 C      0
    2.5198    1.0454    0.9292 C      0
    1.3465   -1.0779   -2.3511 N      0
    0.0350   -1.2695   -2.6605 N      0
    0.0702   -1.8826   -3.8273 C      0
   -1.1985   -2.3211   -4.4867 C      0
   -1.5340   -3.7812   -4.2206 C      0
   -0.3889   -4.7671   -4.2788 C      0
    0.4059   -4.7928   -5.5987 C      0
    1.8097   -4.2560   -5.4862 C      0
    2.0103   -2.7500   -5.4160 C      0
    1.4121   -2.0582   -4.2173 C      0
    2.2033   -1.5543   -3.2927 N      0
    4.2359   -0.0519   -1.4826 P      0
    4.9222   -1.6960   -1.8057 C      0
    5.2909    0.7635   -0.2603 C      0
    4.3249    0.8937   -3.0221 C      0
    2.2899   -2.0987    0.5283 P      0
    0.8856   -2.3542    1.6397 C      0
    2.3448   -3.5202   -0.5907 C      0
    3.7853   -2.0568    1.5484 C      0
   -0.5293    0.7567   -0.5289 H      0
   -0.4439   -0.9977   -0.2660 H      0
    0.0077    0.1195    1.0401 H      0
    0.6643    2.0849   -1.4895 H      0
    1.7615    1.5310   -2.7724 H      0
    2.4030    2.4339   -1.3830 H      0
    1.6459    1.2692    1.5373 H      0
    2.9760    1.9758    0.5978 H      0
    3.2374    0.4840    1.5206 H      0
   -1.0980   -2.1787   -5.5616 H      0
   -2.0146   -1.7041   -4.1135 H      0
   -2.2716   -4.0894   -4.9600 H      0
   -1.9707   -3.8423   -3.2249 H      0
   -0.7968   -5.7634   -4.1147 H      0
    0.3046   -4.5219   -3.4757 H      0
   -0.1311   -4.1932   -6.3322 H      0
    0.4615   -5.8243   -5.9436 H      0
    2.3604   -4.6129   -6.3553 H      0
    2.2440   -4.6801   -4.5820 H      0
    1.5660   -2.3128   -6.3090 H      0
    3.0820   -2.5566   -5.4118 H      0
    4.4791   -2.1498   -2.6875 H      0
    5.9950   -1.6306   -1.9740 H      0
    4.7562   -2.3677   -0.9684 H      0
    5.2704    0.2288    0.6868 H      0
    4.9577    1.7837   -0.0821 H      0
    6.3217    0.8008   -0.6065 H      0
    3.7049    0.4364   -3.7906 H      0
    5.3472    0.9347   -3.3918 H      0
    3.9777    1.9135   -2.8697 H      0
    1.0206   -3.2589    2.2286 H      0
   -0.0401   -2.4529    1.0769 H      0
    0.7784   -1.5163    2.3254 H      0
    1.7812   -3.3146   -1.4983 H      0
    1.9091   -4.3970   -0.1161 H      0
    3.3630   -3.7667   -0.8767 H      0
    3.9968   -3.0438    1.9544 H      0
    3.6644   -1.3743    2.3863 H      0
    4.6515   -1.7338    0.9775 H      0
  1  2  1
  2  3  1
  2  4  1
  2  5  1
  5  6  1
  6  7  2
  7  8  1
  8  9  1
  9 10  1
 10 11  1
 11 12  1
 12 13  1
 13 14  1
  7 14  1
 14 15  2
  5 15  1
  2 16  1
 16 17  1
 16 18  1
 16 19  1
  2 20  1
 20 21  1
 20 22  1
 20 23  1
  1 24  1
  1 25  1
  1 26  1
  3 27  1
  3 28  1
  3 29  1
  4 30  1
  4 31  1
  4 32  1
  8 33  1
  8 34  1
  9 35  1
  9 36  1
 10 37  1
 10 38  1
 11 39  1
 11 40  1
 12 41  1
 12 42  1
 13 43  1
 13 44  1
 17 45  1
 17 46  1
 17 47  1
 18 48  1
 18 49  1
 18 50  1
 19 51  1
 19 52  1
 19 53  1
 21 54  1
 21 55  1
 21 56  1
 22 57  1
 22 58  1
 22 59  1
 23 60  1
 23 61  1
 23 62  1
M  END
$$$$
