
     RDKit          3D

 62 63  0  0  0  0  0  0  0  0999 V2000
   -1.4392   -0.3922    1.8893 C   0  0  0  0  0  0  0  0  0  0  0  0
   -1.8200    0.0953    0.1002 Pt  0  0  0  0  0  6  0  0  0  0  0  0
   -3.4561   -0.0049    0.5213 C   0  0  0  0  0  0  0  0  0  0  0  0
   -1.9233    0.5976   -1.6495 C   0  0  0  0  0  0  0  0  0  0  0  0
    0.0729    0.0752   -0.0557 N   0  0  0  0  0  0  0  0  0  0  0  0
    1.0068    1.0371    0.1397 N   0  0  0  0  0  0  0  0  0  0  0  0
    2.2042    0.7170   -0.0308 C   0  0  0  0  0  0  0  0  0  0  0  0
    3.2874    1.7386    0.1996 C   0  0  0  0  0  0  0  0  0  0  0  0
    4.4933    0.9552    0.1853 C   0  0  0  0  0  0  0  0  0  0  0  0
    5.7610    0.4829    0.3344 C   0  0  0  0  0  0  0  0  0  0  0  0
    5.6769   -1.0254   -0.0592 C   0  0  0  0  0  0  0  0  0  0  0  0
    4.3589   -1.6853    0.2307 C   0  0  0  0  0  0  0  0  0  0  0  0
    3.2219   -1.6031   -0.7000 C   0  0  0  0  0  0  0  0  0  0  0  0
    2.1764   -0.6014   -0.3873 C   0  0  0  0  0  0  0  0  0  0  0  0
    0.9137   -0.9291   -0.3885 N   0  0  0  0  0  0  0  0  0  0  0  0
   -2.1890   -1.9687   -0.6278 P   0  0  0  0  0  4  0  0  0  0  0  0
   -3.6079   -2.1209   -1.7239 C   0  0  0  0  0  0  0  0  0  0  0  0
   -2.3893   -3.0575    0.7010 C   0  0  0  0  0  0  0  0  0  0  0  0
   -0.7747   -2.4610   -1.5565 C   0  0  0  0  0  0  0  0  0  0  0  0
   -2.0731    2.2365    0.5564 P   0  0  0  0  0  4  0  0  0  0  0  0
   -2.2528    2.4913    2.2599 C   0  0  0  0  0  0  0  0  0  0  0  0
   -0.6104    3.0702    0.0105 C   0  0  0  0  0  0  0  0  0  0  0  0
   -3.4572    3.0172   -0.2941 C   0  0  0  0  0  0  0  0  0  0  0  0
   -1.0092   -1.3858    2.1010 H   0  0  0  0  0  0  0  0  0  0  0  0
   -0.7967    0.3001    2.5211 H   0  0  0  0  0  0  0  0  0  0  0  0
   -2.2281   -0.4143    2.6289 H   0  0  0  0  0  0  0  0  0  0  0  0
   -4.0256   -0.8996    0.9810 H   0  0  0  0  0  0  0  0  0  0  0  0
   -4.2773    0.2147   -0.2358 H   0  0  0  0  0  0  0  0  0  0  0  0
   -4.0071    0.5926    1.3439 H   0  0  0  0  0  0  0  0  0  0  0  0
   -2.9135    0.7642   -2.1240 H   0  0  0  0  0  0  0  0  0  0  0  0
   -1.4746   -0.0227   -2.4892 H   0  0  0  0  0  0  0  0  0  0  0  0
   -1.4141    1.5263   -2.0641 H   0  0  0  0  0  0  0  0  0  0  0  0
    3.0585    2.2572    1.1401 H   0  0  0  0  0  0  0  0  0  0  0  0
    3.2244    2.5436   -0.5901 H   0  0  0  0  0  0  0  0  0  0  0  0
    4.3001    0.5899   -0.8876 H   0  0  0  0  0  0  0  0  0  0  0  0
    4.0671    0.2544    0.9900 H   0  0  0  0  0  0  0  0  0  0  0  0
    6.2590    0.4829    1.3456 H   0  0  0  0  0  0  0  0  0  0  0  0
    6.5703    0.8987   -0.3324 H   0  0  0  0  0  0  0  0  0  0  0  0
    5.7598   -1.0129   -1.1798 H   0  0  0  0  0  0  0  0  0  0  0  0
    6.5337   -1.5509    0.3432 H   0  0  0  0  0  0  0  0  0  0  0  0
    4.7012   -2.7763    0.1230 H   0  0  0  0  0  0  0  0  0  0  0  0
    4.0923   -1.7399    1.3140 H   0  0  0  0  0  0  0  0  0  0  0  0
    3.6085   -1.5463   -1.7241 H   0  0  0  0  0  0  0  0  0  0  0  0
    2.6758   -2.5750   -0.6882 H   0  0  0  0  0  0  0  0  0  0  0  0
   -3.3627   -2.4344   -2.7519 H   0  0  0  0  0  0  0  0  0  0  0  0
   -4.0948   -1.1098   -1.8511 H   0  0  0  0  0  0  0  0  0  0  0  0
   -4.3929   -2.7758   -1.3358 H   0  0  0  0  0  0  0  0  0  0  0  0
   -1.5321   -3.7008    0.9851 H   0  0  0  0  0  0  0  0  0  0  0  0
   -3.2399   -3.7215    0.5674 H   0  0  0  0  0  0  0  0  0  0  0  0
   -2.6404   -2.4770    1.6410 H   0  0  0  0  0  0  0  0  0  0  0  0
   -1.1420   -3.1777   -2.3014 H   0  0  0  0  0  0  0  0  0  0  0  0
    0.0016   -3.0313   -0.9961 H   0  0  0  0  0  0  0  0  0  0  0  0
   -0.3231   -1.6681   -2.2289 H   0  0  0  0  0  0  0  0  0  0  0  0
   -2.5299    1.5545    2.8339 H   0  0  0  0  0  0  0  0  0  0  0  0
   -3.0656    3.1739    2.4859 H   0  0  0  0  0  0  0  0  0  0  0  0
   -1.2846    2.7924    2.7521 H   0  0  0  0  0  0  0  0  0  0  0  0
    0.1739    3.1695    0.7908 H   0  0  0  0  0  0  0  0  0  0  0  0
   -0.1878    2.7150   -0.9796 H   0  0  0  0  0  0  0  0  0  0  0  0
   -0.9134    4.0870   -0.2293 H   0  0  0  0  0  0  0  0  0  0  0  0
   -3.1461    3.8050   -1.0069 H   0  0  0  0  0  0  0  0  0  0  0  0
   -4.2117    3.3644    0.4045 H   0  0  0  0  0  0  0  0  0  0  0  0
   -3.9934    2.2691   -0.9513 H   0  0  0  0  0  0  0  0  0  0  0  0
  1  2  1  0
  2  3  1  0
  2  4  1  0
  2  5  1  0
  5  6  1  0
  6  7  2  0
  7  8  1  0
  8  9  1  0
  9 10  1  0
 10 11  1  0
 11 12  1  0
 12 13  1  0
 13 14  1  0
 14 15  2  0
  2 16  1  0
 16 17  1  0
 16 18  1  0
 16 19  1  0
  2 20  1  0
 20 21  1  0
 20 22  1  0
 20 23  1  0
 15  5  1  0
 14  7  1  0
  1 24  1  0
  1 25  1  0
  1 26  1  0
  3 27  1  0
  3 28  1  0
  3 29  1  0
  4 30  1  0
  4 31  1  0
  4 32  1  0
  8 33  1  0
  8 34  1  0
  9 35  1  0
  9 36  1  0
 10 37  1  0
 10 38  1  0
 11 39  1  0
 11 40  1  0
 12 41  1  0
 12 42  1  0
 13 43  1  0
 13 44  1  0
 17 45  1  0
 17 46  1  0
 17 47  1  0
 18 48  1  0
 18 49  1  0
 18 50  1  0
 19 51  1  0
 19 52  1  0
 19 53  1  0
 21 54  1  0
 21 55  1  0
 21 56  1  0
 22 57  1  0
 22 58  1  0
 22 59  1  0
 23 60  1  0
 23 61  1  0
 23 62  1  0
M  RAD  2  16   2  20   2
M  END
