
 OpenBabel09252516433D

 24 29  0  0  1  0  0  0  0  0999 V2000
    0.9397    0.0796   -0.0051 H   0  0  0  0  0  0  0  0  0  0  0  0
    2.0097    0.0796   -0.0051 C   0  0  0  0  0  0  0  0  0  0  0  0
    2.3663   -0.3911   -0.8974 H   0  0  0  0  0  0  0  0  0  0  0  0
    2.3663    1.0877    0.0334 H   0  0  0  0  0  0  0  0  0  0  0  0
    2.5163   -0.6838    1.2077 C   0  0  2  0  0  0  0  0  0  0  0  0
    3.3654   -0.2587    2.3502 C   0  0  2  0  0  0  0  0  0  0  0  0
    3.4107    0.8097    2.3134 H   0  0  0  0  0  0  0  0  0  0  0  0
    4.0972   -1.5440    2.7908 C   0  0  2  0  0  0  0  0  0  0  0  0
    5.1089   -1.1982    2.7500 H   0  0  0  0  0  0  0  0  0  0  0  0
    3.2015   -2.7015    2.3052 C   0  0  2  0  0  0  0  0  0  0  0  0
    3.2438   -3.6085    1.7390 H   0  0  0  0  0  0  0  0  0  0  0  0
    2.0038   -2.0182    1.6122 C   0  0  1  0  0  0  0  0  0  0  0  0
    1.1003   -2.1760    1.0611 H   0  0  0  0  0  0  0  0  0  0  0  0
    3.4037   -2.4587    3.8020 Mn  0  0  0  0  0  0  0  0  0  0  0  0
    1.4876   -2.2525    4.7553 C   0  0  0  0  0  0  0  0  0  0  0  0
    0.4021   -2.1357    5.2953 O   0  0  0  0  0  0  0  0  0  0  0  0
    5.4961   -2.4160    3.3096 C   0  0  0  0  0  0  0  0  0  0  0  0
    6.6815   -2.3918    3.0306 O   0  0  0  0  0  0  0  0  0  0  0  0
    2.2966   -1.2161    4.1489 H   0  0  0  0  0  0  0  0  0  0  0  0
    4.0088   -4.7803    4.5049 Si  0  0  0  0  0  0  0  0  0  0  0  0
    5.0941   -3.5414    3.1543 Cl  0  0  0  0  0  0  0  0  0  0  0  0
    4.0911   -4.8797    6.6310 Cl  0  0  0  0  0  0  0  0  0  0  0  0
    2.5398   -6.1452    3.7866 Cl  0  0  0  0  0  0  0  0  0  0  0  0
    5.2770   -5.1227    3.9656 H   0  0  0  0  0  0  0  0  0  0  0  0
  1  2  1  0  0  0  0
  2  3  1  0  0  0  0
  2  4  1  0  0  0  0
  5  2  1  1  0  0  0
  5  6  1  0  0  0  0
  5 12  1  0  0  0  0
  5 14  1  0  0  0  0
  6  7  1  1  0  0  0
  6  8  1  0  0  0  0
  6 14  1  0  0  0  0
  8  9  1  6  0  0  0
  8 10  1  0  0  0  0
  8 14  1  0  0  0  0
 10 11  1  6  0  0  0
 10 12  1  0  0  0  0
 10 14  1  0  0  0  0
 12 13  1  6  0  0  0
 12 14  1  0  0  0  0
 14 15  1  0  0  0  0
 14 17  1  0  0  0  0
 14 19  1  0  0  0  0
 14 20  1  0  0  0  0
 15 16  3  0  0  0  0
 17 18  3  0  0  0  0
 19 20  1  0  0  0  0
 20 21  1  0  0  0  0
 20 22  1  0  0  0  0
 20 23  1  0  0  0  0
 20 24  1  0  0  0  0
M  END
$$$$
