
  --CCDC--092525    3D                              

 75 79  0  0  0  0  0  0  0  0999 V2000
   -0.1773    0.3213   -0.7801 H      0
    0.4612    1.1424   -0.4713 C      0
    1.0537    1.9606   -1.4019 C      0
    0.8960    1.7395   -2.4523 H      0
    1.8733    3.0104   -1.0743 C      0
    1.9769    3.4606    0.3166 C      0
    1.4855    2.4790    1.2396 C      0
    0.7274    1.3574    0.8342 C      0
    0.3456    0.6689    1.5808 H      0
    1.7380    2.5852    2.5936 C      0
    1.4709    1.7680    3.2554 H      0
    2.2782    3.7337    3.1169 C      0
    2.5266    3.8889    4.5006 C      0
    2.3933    3.0481    5.1732 H      0
    2.9110    5.0963    4.9909 C      0
    3.1187    5.2131    6.0494 H      0
    3.0041    6.1822    4.1420 C      0
    3.2465    7.1522    4.5611 H      0
    2.7852    6.0639    2.7931 C      0
    2.5182    4.7902    2.2124 C      0
    2.4686    4.6394    0.8650 N      0
    3.0446    6.3965   -0.1683 Ir     0
    4.5642    5.8110   -0.3636 H      0
    2.9188    7.8097   -0.9885 H      0
    0.7726    6.9409    0.4717 Cl     0
    2.7139    5.2291   -2.2823 P      0
    0.9146    5.4748   -2.3611 C      0
    0.4821    5.1923   -1.3903 H      0
    0.5746    6.9357   -2.6656 C      0
   -0.4750    7.1374   -2.4620 H      0
    0.7591    7.1573   -3.7143 H      0
    1.1767    7.6181   -2.0710 H      0
    0.1938    4.6601   -3.4391 C      0
    0.6894    4.7685   -4.4016 H      0
   -0.8321    5.0053   -3.5494 H      0
    0.1563    3.6028   -3.1889 H      0
    3.6514    5.9139   -3.6718 C      0
    3.1750    5.5817   -4.6071 H      0
    3.6948    7.4434   -3.6637 C      0
    4.3330    7.8110   -4.4645 H      0
    2.7056    7.8703   -3.8043 H      0
    4.0924    7.8120   -2.7204 H      0
    5.0878    5.3891   -3.6617 C      0
    5.6440    5.7712   -4.5151 H      0
    5.1016    4.3021   -3.7073 H      0
    5.6045    5.6969   -2.7550 H      0
    2.6100    3.4478   -2.3201 C      0
    2.1277    3.0766   -3.2313 H      0
    3.6232    3.0275   -2.3041 H      0
    4.4301    7.6841    1.4446 P      0
    4.1741    9.1158    2.5469 C      0
    3.7088    8.7010    3.4527 H      0
    5.4928    9.7443    2.9991 C      0
    6.2283    8.9788    3.2375 H      0
    5.9011   10.3901    2.2264 H      0
    5.3383   10.3531    3.8875 H      0
    3.2553   10.2596    2.0909 C      0
    2.4506    9.8978    1.4551 H      0
    3.7937   11.0320    1.5534 H      0
    2.8044   10.7381    2.9578 H      0
    5.1927    8.3838   -0.0542 C      0
    5.0656    7.6269   -0.8414 H      0
    6.7043    8.5583    0.1101 C      0
    7.1638    7.6280    0.4371 H      0
    6.9431    9.3260    0.8400 H      0
    7.1602    8.8437   -0.8357 H      0
    4.6161    9.6789   -0.6269 C      0
    3.5384    9.7285   -0.4871 H      0
    4.8228    9.7443   -1.6931 H      0
    5.0740   10.5448   -0.1574 H      0
    2.7576    7.2842    1.9255 C      0
    2.3274    7.0257    0.9687 H      0
    2.1766    8.0912    2.3808 H      0
    3.5881    4.5677   -1.4115 H      0
    5.3176    6.7863    2.0500 H      0
  1  2  1
  2  3  4
  3  4  1
  3  5  4
  5  6  4
  6  7  4
  7  8  4
  2  8  4
  8  9  1
  7 10  4
 10 11  1
 10 12  4
 12 13  4
 13 14  1
 13 15  4
 15 16  1
 15 17  4
 17 18  1
 17 19  4
 19 20  4
 12 20  4
 20 21  4
  6 21  4
 21 22  1
 22 23  1
 22 24  1
 22 25  1
 22 26  1
 26 27  1
 27 28  1
 27 29  1
 29 30  1
 29 31  1
 29 32  1
 27 33  1
 33 34  1
 33 35  1
 33 36  1
 26 37  1
 37 38  1
 37 39  1
 39 40  1
 39 41  1
 39 42  1
 37 43  1
 43 44  1
 43 45  1
 43 46  1
 26 47  1
  5 47  1
 47 48  1
 47 49  1
 22 50  1
 50 51  1
 51 52  1
 51 53  1
 53 54  1
 53 55  1
 53 56  1
 51 57  1
 57 58  1
 57 59  1
 57 60  1
 50 61  1
 61 62  1
 61 63  1
 63 64  1
 63 65  1
 63 66  1
 61 67  1
 67 68  1
 67 69  1
 67 70  1
 50 71  1
 19 71  1
 71 72  1
 71 73  1
 26 74  1
 50 75  1
M  END
$$$$
