
     RDKit          3D

  0  0  0  0  0  0  0  0  0  0999 V3000
M  V30 BEGIN CTAB
M  V30 COUNTS 47 52 0 0 0
M  V30 BEGIN ATOM
M  V30 1 C 1.250782 1.586652 -0.796347 0
M  V30 2 N 0.153500 2.217397 -1.018833 0
M  V30 3 C -0.815414 3.067789 -1.578785 0
M  V30 4 C -2.087248 2.444475 -2.034172 0
M  V30 5 C -2.872980 1.538342 -1.218210 0
M  V30 6 N -2.411483 1.207884 0.099732 0
M  V30 7 C -2.272691 0.591700 1.229415 0
M  V30 8 C -1.798234 0.284563 2.584548 0
M  V30 9 C -2.558323 -0.775820 0.613793 0
M  V30 10 C -3.378217 -1.819672 1.100434 0
M  V30 11 C -3.497236 -3.033035 0.400940 0
M  V30 12 C -2.782744 -3.153774 -0.768761 0
M  V30 13 C -1.957154 -2.203619 -1.327503 0
M  V30 14 C -1.821562 -0.981794 -0.644460 0
M  V30 15 O -0.965043 -0.086082 -1.264449 0
M  V30 16 Cu -0.864694 1.612494 0.181097 0 CFG=2 VAL=4
M  V30 17 O -0.014019 1.151065 1.331068 0
M  V30 18 C 1.154934 0.417392 1.317032 0
M  V30 19 C 1.723548 -0.454066 2.288544 0
M  V30 20 C 2.918165 -1.070934 1.999374 0
M  V30 21 C 3.508590 -0.817354 0.784776 0
M  V30 22 C 4.701725 -1.433931 0.477331 0
M  V30 23 C 5.410500 -1.283652 -0.700930 0
M  V30 24 C 4.874225 -0.432004 -1.670515 0
M  V30 25 C 3.681826 0.199437 -1.392298 0
M  V30 26 C 3.024086 0.009976 -0.201026 0
M  V30 27 C 1.833954 0.608905 0.122161 0
M  V30 28 H 1.945182 1.883249 -1.519152 0
M  V30 29 H -1.054963 3.991021 -0.946769 0
M  V30 30 H -0.371583 3.583590 -2.453531 0
M  V30 31 H -2.759149 3.274980 -2.325214 0
M  V30 32 H -1.881732 1.957515 -3.013591 0
M  V30 33 H -3.142060 0.594687 -1.721225 0
M  V30 34 H -3.918088 1.965489 -0.989519 0
M  V30 35 H -1.128766 -0.513664 2.767540 0
M  V30 36 H -1.467801 1.154893 3.178482 0
M  V30 37 H -2.759568 -0.009146 3.129584 0
M  V30 38 H -3.827942 -1.509752 2.064738 0
M  V30 39 H -4.148380 -3.727486 0.883799 0
M  V30 40 H -2.895163 -4.095005 -1.283132 0
M  V30 41 H -1.400031 -2.299398 -2.238177 0
M  V30 42 H 1.173380 -0.567266 3.202400 0
M  V30 43 H 3.300459 -1.709051 2.752407 0
M  V30 44 H 5.144984 -2.099794 1.204748 0
M  V30 45 H 6.328275 -1.796095 -0.863540 0
M  V30 46 H 5.406840 -0.297166 -2.598739 0
M  V30 47 H 3.317311 0.826066 -2.161935 0
M  V30 END ATOM
M  V30 BEGIN BOND
M  V30 1 2 1 2
M  V30 2 1 2 3
M  V30 3 1 3 4
M  V30 4 1 4 5
M  V30 5 1 5 6
M  V30 6 2 6 7
M  V30 7 1 7 8
M  V30 8 1 7 9
M  V30 9 2 9 10
M  V30 10 1 10 11
M  V30 11 2 11 12
M  V30 12 1 12 13
M  V30 13 2 13 14
M  V30 14 1 14 15
M  V30 15 1 15 16
M  V30 16 1 16 17
M  V30 17 1 17 18
M  V30 18 2 18 19
M  V30 19 1 19 20
M  V30 20 2 20 21
M  V30 21 1 21 22
M  V30 22 2 22 23
M  V30 23 1 23 24
M  V30 24 2 24 25
M  V30 25 1 25 26
M  V30 26 2 26 27
M  V30 27 1 27 1
M  V30 28 9 2 16
M  V30 29 1 27 18
M  V30 30 9 6 16
M  V30 31 1 26 21
M  V30 32 1 14 9
M  V30 33 1 1 28
M  V30 34 1 3 29
M  V30 35 1 3 30
M  V30 36 1 4 31
M  V30 37 1 4 32
M  V30 38 1 5 33
M  V30 39 1 5 34
M  V30 40 1 8 35
M  V30 41 1 8 36
M  V30 42 1 8 37
M  V30 43 1 10 38
M  V30 44 1 11 39
M  V30 45 1 12 40
M  V30 46 1 13 41
M  V30 47 1 19 42
M  V30 48 1 20 43
M  V30 49 1 22 44
M  V30 50 1 23 45
M  V30 51 1 24 46
M  V30 52 1 25 47
M  V30 END BOND
M  V30 END CTAB
M  END
