
 OpenBabel09252513553D

 49 54  0  0  1  0  0  0  0  0999 V2000
    0.9692    0.0645   -0.0699 H   0  0  0  0  0  0  0  0  0  0  0  0
    2.0392    0.0645   -0.0699 C   0  0  0  0  0  3  0  0  0  0  0  0
    2.5458    0.9557    1.0524 C   0  0  0  0  0  3  0  0  0  0  0  0
    2.1892    0.5851    1.9907 H   0  0  0  0  0  0  0  0  0  0  0  0
    4.0658    0.9557    1.0524 C   0  0  0  0  0  3  0  0  0  0  0  0
    4.6240    1.6696   -0.2055 C   0  0  0  0  0  3  0  0  0  0  0  0
    3.7625    2.8664   -0.5743 C   0  0  0  0  0  3  0  0  0  0  0  0
    2.5458    0.5909   -1.4028 C   0  0  0  0  0  3  0  0  0  0  0  0
    2.1892   -0.0364   -2.1929 H   0  0  0  0  0  0  0  0  0  0  0  0
    2.3795    2.3877   -0.9850 C   0  0  0  0  0  0  0  0  0  0  0  0
    1.9280    1.8606   -0.1706 H   0  0  0  0  0  0  0  0  0  0  0  0
    1.7730    3.2301   -1.2446 H   0  0  0  0  0  0  0  0  0  0  0  0
    6.8640    0.3295    1.7170 P   0  0  0  0  0  0  0  0  0  0  0  0
    7.8485    1.5636    2.6426 C   0  0  0  0  0  0  0  0  0  0  0  0
    7.2379    2.7441    2.5946 F   0  0  0  0  0  0  0  0  0  0  0  0
    7.9664    1.1766    3.9096 F   0  0  0  0  0  0  0  0  0  0  0  0
    9.0567    1.6669    2.0963 F   0  0  0  0  0  0  0  0  0  0  0  0
    5.1462   -0.0403    2.2280 C   0  0  0  0  0  0  0  0  0  0  0  0
    4.8543   -1.3013    1.9221 F   0  0  0  0  0  0  0  0  0  0  0  0
    5.0264    0.1366    3.5407 F   0  0  0  0  0  0  0  0  0  0  0  0
    4.3094    0.7752    1.5926 F   0  0  0  0  0  0  0  0  0  0  0  0
    6.0321    2.1194    0.2155 Ir  0  0  0  0  0  0  0  0  0  0  0  0
    7.0722    1.1464   -0.2728 C   0  0  0  0  0  0  0  0  0  0  0  0
    7.7507    0.7258    0.4397 H   0  0  0  0  0  0  0  0  0  0  0  0
    7.1361    0.1067   -0.0284 H   0  0  0  0  0  0  0  0  0  0  0  0
    7.9069    1.8342   -1.0757 C   0  0  1  0  0  0  0  0  0  0  0  0
    7.2003    2.3317   -1.7066 H   0  0  0  0  0  0  0  0  0  0  0  0
    7.4931    3.2321   -1.1709 C   0  0  2  0  0  0  0  0  0  0  0  0
    6.8863    3.6201    0.1676 C   0  0  0  0  0  0  0  0  0  0  0  0
    6.0434    2.9935    0.3722 H   0  0  0  0  0  0  0  0  0  0  0  0
    7.6172    3.4979    0.9395 H   0  0  0  0  0  0  0  0  0  0  0  0
    6.5710    4.6420    0.1335 H   0  0  0  0  0  0  0  0  0  0  0  0
    6.3784    3.4452   -0.4082 C   0  0  0  0  0  0  0  0  0  0  0  0
    7.1777    3.8781   -0.9727 H   0  0  0  0  0  0  0  0  0  0  0  0
    5.8562    4.3702   -0.2801 H   0  0  0  0  0  0  0  0  0  0  0  0
    6.0416    2.2119    1.7449 P   0  0  0  0  0  0  0  0  0  0  0  0
    6.5064    2.5947    3.4730 C   0  0  0  0  0  0  0  0  0  0  0  0
    5.8132    1.8182    4.3009 F   0  0  0  0  0  0  0  0  0  0  0  0
    7.8069    2.3731    3.6418 F   0  0  0  0  0  0  0  0  0  0  0  0
    6.2368    3.8710    3.7322 F   0  0  0  0  0  0  0  0  0  0  0  0
    6.2922    0.5246    1.0823 C   0  0  0  0  0  0  0  0  0  0  0  0
    5.1227    0.0206    0.6987 F   0  0  0  0  0  0  0  0  0  0  0  0
    7.1164    0.5756    0.0396 F   0  0  0  0  0  0  0  0  0  0  0  0
    6.8199   -0.2488    2.0270 F   0  0  0  0  0  0  0  0  0  0  0  0
    4.6238    1.8172    2.2136 C   0  0  0  0  0  0  0  0  0  0  0  0
    4.0101    2.6680    2.4244 H   0  0  0  0  0  0  0  0  0  0  0  0
    4.6679    1.2500    3.1198 H   0  0  0  0  0  0  0  0  0  0  0  0
    7.3270   -0.6665    2.5525 H   0  0  0  0  0  0  0  0  0  0  0  0
    5.5021    3.1956    0.9414 H   0  0  0  0  0  0  0  0  0  0  0  0
  1  2  1  0  0  0  0
  2  3  1  0  0  0  0
  2  8  1  0  0  0  0
  3  4  1  0  0  0  0
  3  5  1  0  0  0  0
  5  6  1  0  0  0  0
  5 45  1  0  0  0  0
  6  7  1  0  0  0  0
  6 22  1  0  0  0  0
  7  8  1  0  0  0  0
  7 10  1  0  0  0  0
  8  9  1  0  0  0  0
 10 11  1  0  0  0  0
 10 12  1  0  0  0  0
 10 13  1  0  0  0  0
 13 14  1  0  0  0  0
 13 18  1  0  0  0  0
 13 22  1  0  0  0  0
 13 48  1  0  0  0  0
 14 15  1  0  0  0  0
 14 16  1  0  0  0  0
 14 17  1  0  0  0  0
 18 19  1  0  0  0  0
 18 20  1  0  0  0  0
 18 21  1  0  0  0  0
 22 23  1  0  0  0  0
 22 26  1  0  0  0  0
 22 28  1  0  0  0  0
 22 33  1  0  0  0  0
 22 36  1  0  0  0  0
 23 24  1  0  0  0  0
 23 25  1  0  0  0  0
 23 26  2  0  0  0  0
 26 27  1  1  0  0  0
 26 28  1  0  0  0  0
 28 29  1  1  0  0  0
 28 33  2  0  0  0  0
 29 30  1  0  0  0  0
 29 31  1  0  0  0  0
 29 32  1  0  0  0  0
 33 34  1  0  0  0  0
 33 35  1  0  0  0  0
 36 37  1  0  0  0  0
 36 41  1  0  0  0  0
 36 45  1  0  0  0  0
 36 49  1  0  0  0  0
 37 38  1  0  0  0  0
 37 39  1  0  0  0  0
 37 40  1  0  0  0  0
 41 42  1  0  0  0  0
 41 43  1  0  0  0  0
 41 44  1  0  0  0  0
 45 46  1  0  0  0  0
 45 47  1  0  0  0  0
M  END
$$$$
