
     RDKit          3D

 32 35  0  0  0  0  0  0  0  0999 V2000
    3.2249   -1.7236   -0.8662 C   0  0  0  0  0  0  0  0  0  0  0  0
    4.2061   -0.7437   -0.7537 C   0  0  0  0  0  0  0  0  0  0  0  0
    3.8370    0.5732   -0.4951 C   0  0  0  0  0  0  0  0  0  0  0  0
    2.4866    0.8953   -0.3277 C   0  0  0  0  0  0  0  0  0  0  0  0
    1.4847   -0.0854   -0.3657 C   0  0  0  0  0  0  0  0  0  0  0  0
    1.8768   -1.3938   -0.6861 C   0  0  0  0  0  0  0  0  0  0  0  0
    0.0637    0.3078   -0.1335 C   0  0  0  0  0  0  0  0  0  0  0  0
   -0.2261    1.6325   -0.1307 C   0  0  0  0  0  0  0  0  0  0  0  0
    0.8426    2.6731   -0.1554 C   0  0  0  0  0  0  0  0  0  0  0  0
    0.5852    3.8730   -0.1272 O   0  0  0  0  0  0  0  0  0  0  0  0
    2.1327    2.2361   -0.1822 N   0  0  0  0  0  0  0  0  0  0  0  0
   -1.6392    2.1632   -0.1087 C   0  0  0  0  0  0  0  0  0  0  0  0
   -2.6045    1.1885   -0.7861 C   0  0  0  0  0  0  0  0  0  0  0  0
   -2.4030   -0.1930   -0.2249 C   0  0  0  0  0  0  0  0  0  0  0  0
   -3.4985   -1.0474   -0.0357 C   0  0  0  0  0  0  0  0  0  0  0  0
   -3.3189   -2.2918    0.5613 C   0  0  0  0  0  0  0  0  0  0  0  0
   -2.0512   -2.6783    0.9843 C   0  0  0  0  0  0  0  0  0  0  0  0
   -0.9547   -1.8356    0.7779 C   0  0  0  0  0  0  0  0  0  0  0  0
   -1.0997   -0.6026    0.1255 C   0  0  0  0  0  0  0  0  0  0  0  0
    3.5039   -2.7475   -1.1041 H   0  0  0  0  0  0  0  0  0  0  0  0
    5.2528   -1.0003   -0.8946 H   0  0  0  0  0  0  0  0  0  0  0  0
    4.6034    1.3417   -0.4494 H   0  0  0  0  0  0  0  0  0  0  0  0
    1.1418   -2.1812   -0.8274 H   0  0  0  0  0  0  0  0  0  0  0  0
    2.8388    2.9588   -0.1970 H   0  0  0  0  0  0  0  0  0  0  0  0
   -1.7144    3.1220   -0.6343 H   0  0  0  0  0  0  0  0  0  0  0  0
   -1.9357    2.3390    0.9333 H   0  0  0  0  0  0  0  0  0  0  0  0
   -2.4326    1.1607   -1.8693 H   0  0  0  0  0  0  0  0  0  0  0  0
   -3.6326    1.5312   -0.6207 H   0  0  0  0  0  0  0  0  0  0  0  0
   -4.4976   -0.7361   -0.3315 H   0  0  0  0  0  0  0  0  0  0  0  0
   -4.1704   -2.9482    0.7196 H   0  0  0  0  0  0  0  0  0  0  0  0
   -1.9132   -3.6339    1.4837 H   0  0  0  0  0  0  0  0  0  0  0  0
    0.0113   -2.1537    1.1611 H   0  0  0  0  0  0  0  0  0  0  0  0
  1  2  2  0
  2  3  1  0
  3  4  2  0
  4  5  1  0
  5  6  2  0
  5  7  1  0
  7  8  2  0
  8  9  1  0
  9 10  2  0
  9 11  1  0
  8 12  1  0
 12 13  1  0
 13 14  1  0
 14 15  2  0
 15 16  1  0
 16 17  2  0
 17 18  1  0
 18 19  2  0
  6  1  1  0
 19  7  1  0
 11  4  1  0
 19 14  1  0
  1 20  1  0
  2 21  1  0
  3 22  1  0
  6 23  1  0
 11 24  1  0
 12 25  1  0
 12 26  1  0
 13 27  1  0
 13 28  1  0
 15 29  1  0
 16 30  1  0
 17 31  1  0
 18 32  1  0
M  END
