
  --CCDC--092525    3D                              

 34 33  0  0  0  0  0  0  0  0999 V2000
    0.0000    0.0000    0.0000 H      0
    0.5440    0.9422    0.0000 C      0
    0.7406    1.2201   -1.0334 H      0
    1.4993    0.7821    0.4955 H      0
   -0.2211    1.9801    0.6770 C      0
   -0.8282    2.8036    1.1822 N      0
   -2.2913    4.7882    2.4000 La     0
   -4.4285    5.3532    4.8231 Br     0
   -0.4284    6.6981    4.3080 Br     0
    0.0403    6.1792    0.5596 Br     0
   -4.1382    2.7520    2.4729 N      0
   -4.9044    1.9074    2.5030 C      0
   -5.8652    0.8130    2.5142 C      0
   -6.1248    0.5174    1.4998 H      0
   -5.4550   -0.0551    3.0258 H      0
   -6.7792    1.1074    3.0258 H      0
   -1.1215    3.2355    4.3450 N      0
   -0.6362    2.5913    5.1520 C      0
    0.0157    1.7787    6.1696 C      0
   -0.7214    1.2792    6.7949 H      0
    0.6432    2.3940    6.8109 H      0
    0.6432    1.0171    5.7113 H      0
   -3.5747    4.7036   -0.0307 N      0
   -4.1074    4.6684   -1.0395 C      0
   -4.7749    4.5899   -2.3314 C      0
   -4.9265    3.5533   -2.6249 H      0
   -4.1815    5.0771   -3.1024 H      0
   -5.7470    5.0771   -2.2935 H      0
   -3.5224    7.2039    1.9403 N      0
   -4.0332    8.2062    1.7495 C      0
   -4.6665    9.4887    1.4754 C      0
   -4.7494    9.6566    0.4036 H      0
   -4.0866   10.3043    1.9024 H      0
   -5.6665    9.5241    1.9024 H      0
  1  2  1
  2  3  1
  2  4  1
  2  5  1
  5  6  3
  6  7  1
  7  8  1
  7  9  1
  7 10  1
  7 11  1
 11 12  3
 12 13  1
 13 14  1
 13 15  1
 13 16  1
  7 17  1
 17 18  3
 18 19  1
 19 20  1
 19 21  1
 19 22  1
  7 23  1
 23 24  3
 24 25  1
 25 26  1
 25 27  1
 25 28  1
  7 29  1
 29 30  3
 30 31  1
 31 32  1
 31 33  1
 31 34  1
M  END
$$$$
