
     RDKit          3D

 26 26  0  0  0  0  0  0  0  0999 V2000
    3.4718    0.5466    1.4262 C   0  0  0  0  0  0  0  0  0  0  0  0
    2.8649   -0.0806    0.1772 C   0  0  0  0  0  0  0  0  0  0  0  0
    3.3802    0.6114   -1.0795 C   0  0  0  0  0  0  0  0  0  0  0  0
    1.4374    0.0884    0.2692 O   0  0  0  0  0  0  0  0  0  0  0  0
    0.6856   -0.8004   -0.4248 C   0  0  0  0  0  0  0  0  0  0  0  0
    1.1043   -1.7190   -1.1101 O   0  0  0  0  0  0  0  0  0  0  0  0
   -0.7641   -0.5094   -0.2449 C   0  0  0  0  0  0  0  0  0  0  0  0
   -1.6904   -1.3367   -0.8994 C   0  0  0  0  0  0  0  0  0  0  0  0
   -3.0644   -1.1101   -0.7667 C   0  0  0  0  0  0  0  0  0  0  0  0
   -3.5146   -0.0474    0.0272 C   0  0  0  0  0  0  0  0  0  0  0  0
   -2.6000    0.7858    0.6858 C   0  0  0  0  0  0  0  0  0  0  0  0
   -1.2268    0.5524    0.5478 C   0  0  0  0  0  0  0  0  0  0  0  0
   -4.9562    0.1959    0.1707 N   0  0  0  0  0  0  0  0  0  0  0  0
   -5.7310   -0.5634   -0.4278 O   0  0  0  0  0  0  0  0  0  0  0  0
   -5.3112    1.1464    0.8820 O   0  0  0  0  0  0  0  0  0  0  0  0
    4.5623    0.4566    1.4274 H   0  0  0  0  0  0  0  0  0  0  0  0
    3.0804    0.0584    2.3253 H   0  0  0  0  0  0  0  0  0  0  0  0
    3.2058    1.6068    1.5036 H   0  0  0  0  0  0  0  0  0  0  0  0
    3.1251   -1.1461    0.1618 H   0  0  0  0  0  0  0  0  0  0  0  0
    3.0931    1.6687   -1.0898 H   0  0  0  0  0  0  0  0  0  0  0  0
    4.4700    0.5425   -1.1510 H   0  0  0  0  0  0  0  0  0  0  0  0
    2.9475    0.1608   -1.9786 H   0  0  0  0  0  0  0  0  0  0  0  0
   -1.3433   -2.1642   -1.5178 H   0  0  0  0  0  0  0  0  0  0  0  0
   -3.7615   -1.7664   -1.2847 H   0  0  0  0  0  0  0  0  0  0  0  0
   -2.9358    1.6153    1.3058 H   0  0  0  0  0  0  0  0  0  0  0  0
   -0.5291    1.2079    1.0653 H   0  0  0  0  0  0  0  0  0  0  0  0
  1  2  1  0
  2  3  1  0
  2  4  1  0
  4  5  1  0
  5  6  2  0
  5  7  1  0
  7  8  2  0
  8  9  1  0
  9 10  2  0
 10 11  1  0
 11 12  2  0
 10 13  1  0
 13 14  1  0
 13 15  2  0
 12  7  1  0
  1 16  1  0
  1 17  1  0
  1 18  1  0
  2 19  1  0
  3 20  1  0
  3 21  1  0
  3 22  1  0
  8 23  1  0
  9 24  1  0
 11 25  1  0
 12 26  1  0
M  CHG  2  13   1  14  -1
M  END
