
 OpenBabel09252519323D

 53 57  0  0  0  0  0  0  0  0999 V2000
    1.0439    0.0243   -0.0865 I   0  0  0  0  0  0  0  0  0  0  0  0
    3.7539    0.0243   -0.0865 Cu  0  0  0  0  0  0  0  0  0  0  0  0
    4.4474    1.2271   -0.0860 S   0  0  0  0  0  3  0  0  0  0  0  0
    5.7145    1.2765    0.2595 P   0  0  0  0  0  0  0  0  0  0  0  0
    6.4727    0.0466    0.6676 C   0  0  0  0  0  0  0  0  0  0  0  0
    5.7364   -1.1973    0.2635 P   0  0  0  0  0  0  0  0  0  0  0  0
    4.4363   -1.1592   -0.0870 S   0  0  0  0  0  3  0  0  0  0  0  0
    5.6340    0.5391    0.8321 C   0  0  0  0  0  0  0  0  0  0  0  0
    6.4499    1.5162    0.2861 C   0  0  0  0  0  0  0  0  0  0  0  0
    6.4878    2.7159    1.0353 C   0  0  0  0  0  0  0  0  0  0  0  0
    5.5963    3.0575    1.9478 C   0  0  0  0  0  0  0  0  0  0  0  0
    4.7741    2.0619    2.3974 C   0  0  0  0  0  0  0  0  0  0  0  0
    4.7726    0.8237    1.8017 C   0  0  0  0  0  0  0  0  0  0  0  0
    5.3824   -2.5639    1.4280 C   0  0  0  0  0  0  0  0  0  0  0  0
    5.7967   -2.4378    2.7437 C   0  0  0  0  0  0  0  0  0  0  0  0
    5.9024   -3.6696    3.4320 C   0  0  0  0  0  0  0  0  0  0  0  0
    5.3381   -4.7974    3.0399 C   0  0  0  0  0  0  0  0  0  0  0  0
    4.8877   -4.8355    1.7495 C   0  0  0  0  0  0  0  0  0  0  0  0
    4.8746   -3.7028    0.9719 C   0  0  0  0  0  0  0  0  0  0  0  0
    6.3484    2.1564    1.7335 C   0  0  0  0  0  0  0  0  0  0  0  0
    5.4778    2.7928    2.6027 C   0  0  0  0  0  0  0  0  0  0  0  0
    6.0895    3.7895    3.3993 C   0  0  0  0  0  0  0  0  0  0  0  0
    7.3905    3.8935    3.6005 C   0  0  0  0  0  0  0  0  0  0  0  0
    8.1956    3.1866    2.7510 C   0  0  0  0  0  0  0  0  0  0  0  0
    7.6639    2.2905    1.8553 C   0  0  0  0  0  0  0  0  0  0  0  0
    6.6503    1.3319   -1.3121 C   0  0  0  0  0  0  0  0  0  0  0  0
    7.4207    2.4451   -1.6053 C   0  0  0  0  0  0  0  0  0  0  0  0
    7.8550    2.5035   -2.9507 C   0  0  0  0  0  0  0  0  0  0  0  0
    7.8691    1.4746   -3.7785 C   0  0  0  0  0  0  0  0  0  0  0  0
    7.1437    0.3793   -3.3996 C   0  0  0  0  0  0  0  0  0  0  0  0
    6.5789    0.3037   -2.1494 C   0  0  0  0  0  0  0  0  0  0  0  0
    6.5793    0.0492    1.7323 H   0  0  0  0  0  0  0  0  0  0  0  0
    7.4326    0.0543    0.1951 H   0  0  0  0  0  0  0  0  0  0  0  0
    7.0015    1.3765   -0.6201 H   0  0  0  0  0  0  0  0  0  0  0  0
    7.2949    3.3934    0.8497 H   0  0  0  0  0  0  0  0  0  0  0  0
    5.5214    4.0596    2.3154 H   0  0  0  0  0  0  0  0  0  0  0  0
    4.1225    2.2496    3.2251 H   0  0  0  0  0  0  0  0  0  0  0  0
    4.0709    0.0822    2.1220 H   0  0  0  0  0  0  0  0  0  0  0  0
    6.0169   -1.4946    3.1983 H   0  0  0  0  0  0  0  0  0  0  0  0
    6.4796   -3.6886    4.3327 H   0  0  0  0  0  0  0  0  0  0  0  0
    5.2388   -5.6362    3.6967 H   0  0  0  0  0  0  0  0  0  0  0  0
    4.5404   -5.7608    1.3394 H   0  0  0  0  0  0  0  0  0  0  0  0
    4.4513   -3.7389   -0.0102 H   0  0  0  0  0  0  0  0  0  0  0  0
    4.4370    2.5525    2.6661 H   0  0  0  0  0  0  0  0  0  0  0  0
    5.4537    4.5090    3.8714 H   0  0  0  0  0  0  0  0  0  0  0  0
    7.7930    4.4984    4.3859 H   0  0  0  0  0  0  0  0  0  0  0  0
    9.2550    3.3332    2.7843 H   0  0  0  0  0  0  0  0  0  0  0  0
    8.3157    1.6954    1.2505 H   0  0  0  0  0  0  0  0  0  0  0  0
    7.6651    3.1930   -0.8802 H   0  0  0  0  0  0  0  0  0  0  0  0
    8.1956    3.4469   -3.3233 H   0  0  0  0  0  0  0  0  0  0  0  0
    8.4187    1.4970   -4.6963 H   0  0  0  0  0  0  0  0  0  0  0  0
    7.0140   -0.4306   -4.0867 H   0  0  0  0  0  0  0  0  0  0  0  0
    6.0769   -0.5917   -1.8476 H   0  0  0  0  0  0  0  0  0  0  0  0
  1  2  1  0  0  0  0
  2  3  1  0  0  0  0
  2  7  1  0  0  0  0
  3  4  2  0  0  0  0
  4  5  1  0  0  0  0
  4 20  1  0  0  0  0
  4 26  1  0  0  0  0
  5  6  1  0  0  0  0
  5 32  1  0  0  0  0
  5 33  1  0  0  0  0
  6  7  2  0  0  0  0
  6  8  1  0  0  0  0
  6 14  1  0  0  0  0
  8  9  1  0  0  0  0
  8 13  2  0  0  0  0
  9 10  2  0  0  0  0
  9 34  1  0  0  0  0
 10 11  1  0  0  0  0
 10 35  1  0  0  0  0
 11 12  2  0  0  0  0
 11 36  1  0  0  0  0
 12 13  1  0  0  0  0
 12 37  1  0  0  0  0
 13 38  1  0  0  0  0
 14 15  1  0  0  0  0
 14 19  2  0  0  0  0
 15 16  2  0  0  0  0
 15 39  1  0  0  0  0
 16 17  1  0  0  0  0
 16 40  1  0  0  0  0
 17 18  2  0  0  0  0
 17 41  1  0  0  0  0
 18 19  1  0  0  0  0
 18 42  1  0  0  0  0
 19 43  1  0  0  0  0
 20 21  1  0  0  0  0
 20 25  2  0  0  0  0
 21 22  2  0  0  0  0
 21 44  1  0  0  0  0
 22 23  1  0  0  0  0
 22 45  1  0  0  0  0
 23 24  2  0  0  0  0
 23 46  1  0  0  0  0
 24 25  1  0  0  0  0
 24 47  1  0  0  0  0
 25 48  1  0  0  0  0
 26 27  1  0  0  0  0
 26 31  2  0  0  0  0
 27 28  2  0  0  0  0
 27 49  1  0  0  0  0
 28 29  1  0  0  0  0
 28 50  1  0  0  0  0
 29 30  2  0  0  0  0
 29 51  1  0  0  0  0
 30 31  1  0  0  0  0
 30 52  1  0  0  0  0
 31 53  1  0  0  0  0
M  END
$$$$
