
     RDKit          3D

 28 28  0  0  0  0  0  0  0  0999 V2000
   -2.8010   -1.8197    0.2354 C   0  0  0  0  0  0  0  0  0  0  0  0
   -2.6169   -0.4799    0.9386 C   0  0  0  0  0  0  0  0  0  0  0  0
   -1.9865    0.5754    0.0296 C   0  0  0  0  0  0  0  0  0  0  0  0
   -0.5143    0.5808   -0.0719 C   0  0  0  0  0  0  0  0  0  0  0  0
    0.3423   -0.2670    0.5244 C   0  0  0  0  0  0  0  0  0  0  0  0
    1.8024   -0.1932    0.3567 C   0  0  0  0  0  0  0  0  0  0  0  0
    2.4965    1.0260    0.3885 C   0  0  0  0  0  0  0  0  0  0  0  0
    3.8870    1.0523    0.2545 C   0  0  0  0  0  0  0  0  0  0  0  0
    4.5838   -0.1393    0.0997 C   0  0  0  0  0  0  0  0  0  0  0  0
    5.9168   -0.1134   -0.0268 F   0  0  0  0  0  0  0  0  0  0  0  0
    3.9178   -1.3582    0.0808 C   0  0  0  0  0  0  0  0  0  0  0  0
    2.5276   -1.3858    0.2149 C   0  0  0  0  0  0  0  0  0  0  0  0
   -2.7547    1.4804   -0.6379 C   0  0  0  0  0  0  0  0  0  0  0  0
   -2.1981    2.4929   -1.4755 C   0  0  0  0  0  0  0  0  0  0  0  0
   -1.7312    3.3142   -2.1498 N   0  0  0  0  0  0  0  0  0  0  0  0
   -4.1793    1.4628   -0.5516 C   0  0  0  0  0  0  0  0  0  0  0  0
   -5.3370    1.4356   -0.4736 N   0  0  0  0  0  0  0  0  0  0  0  0
   -3.4552   -1.7211   -0.6373 H   0  0  0  0  0  0  0  0  0  0  0  0
   -3.2598   -2.5416    0.9188 H   0  0  0  0  0  0  0  0  0  0  0  0
   -1.8474   -2.2376   -0.1016 H   0  0  0  0  0  0  0  0  0  0  0  0
   -3.5939   -0.1497    1.3109 H   0  0  0  0  0  0  0  0  0  0  0  0
   -2.0239   -0.6104    1.8515 H   0  0  0  0  0  0  0  0  0  0  0  0
   -0.0740    1.3453   -0.7137 H   0  0  0  0  0  0  0  0  0  0  0  0
    0.0050   -1.0845    1.1543 H   0  0  0  0  0  0  0  0  0  0  0  0
    1.9668    1.9656    0.5273 H   0  0  0  0  0  0  0  0  0  0  0  0
    4.4284    1.9928    0.2748 H   0  0  0  0  0  0  0  0  0  0  0  0
    4.4827   -2.2773   -0.0369 H   0  0  0  0  0  0  0  0  0  0  0  0
    2.0160   -2.3457    0.1983 H   0  0  0  0  0  0  0  0  0  0  0  0
  1  2  1  0
  2  3  1  0
  3  4  1  0
  4  5  2  3
  5  6  1  0
  6  7  2  0
  7  8  1  0
  8  9  2  0
  9 10  1  0
  9 11  1  0
 11 12  2  0
  3 13  2  3
 13 14  1  0
 14 15  3  0
 13 16  1  0
 16 17  3  0
 12  6  1  0
  1 18  1  0
  1 19  1  0
  1 20  1  0
  2 21  1  0
  2 22  1  0
  4 23  1  0
  5 24  1  0
  7 25  1  0
  8 26  1  0
 11 27  1  0
 12 28  1  0
M  END
