
 OpenBabel09252516583D

 87103  0  0  0  0  0  0  0  0999 V2000
    0.8180    1.0620   -0.2230 H   0  0  0  0  0  0  0  0  0  0  0  0
    1.8030   -0.0000    0.2970 Ru  0  0  0  0  0  0  0  0  0  0  0  0
    0.8190   -1.0620   -0.2240 Cl  0  0  0  0  0  2  0  0  0  0  0  0
   -0.2760   -0.0000   -0.0710 Ru  0  0  0  0  0  0  0  0  0  0  0  0
    1.4723   -1.7342    2.1092 P   0  3  0  0  0  0  0  0  0  0  0  0
   -0.1613   -2.5318    1.8994 C   0  0  0  0  0  0  0  0  0  0  0  0
   -1.0946   -2.4482    2.9195 C   0  0  0  0  0  0  0  0  0  0  0  0
   -2.1878   -3.3340    2.7703 C   0  0  0  0  0  0  0  0  0  0  0  0
   -2.5222   -3.9271    1.6387 C   0  0  0  0  0  0  0  0  0  0  0  0
   -1.5824   -3.9164    0.6456 C   0  0  0  0  0  0  0  0  0  0  0  0
   -0.4295   -3.1797    0.7718 C   0  0  0  0  0  0  0  0  0  0  0  0
    2.7889   -2.9997    1.9900 C   0  0  0  0  0  0  0  0  0  0  0  0
    2.4467   -4.3239    1.7711 C   0  0  0  0  0  0  0  0  0  0  0  0
    3.5081   -5.2338    1.9888 C   0  0  0  0  0  0  0  0  0  0  0  0
    4.7845   -4.8981    2.0367 C   0  0  0  0  0  0  0  0  0  0  0  0
    5.0579   -3.5668    2.1856 C   0  0  0  0  0  0  0  0  0  0  0  0
    4.0574   -2.6277    2.1156 C   0  0  0  0  0  0  0  0  0  0  0  0
   -1.4770   -0.0000    0.8690 C   0  0  0  0  0  0  0  0  0  0  0  0
   -2.0468    0.0000    2.2782 C   0  0  0  0  0  0  0  0  0  0  0  0
   -1.6880    0.0000   -0.6480 C   0  0  0  0  0  0  0  0  0  0  0  0
   -2.6206    0.0000   -1.8483 C   0  0  0  0  0  0  0  0  0  0  0  0
   -2.3533   -1.7512    5.4604 C   0  0  0  0  0  0  0  0  0  0  0  0
   -3.1828   -0.5296    5.8208 C   0  0  0  0  0  0  0  0  0  0  0  0
   -1.7303   -1.8661    4.0787 C   0  0  0  0  0  0  0  0  0  0  0  0
   -0.9008   -3.0878    3.7182 C   0  0  0  0  0  0  0  0  0  0  0  0
   -1.9152   -0.8756    3.1647 C   0  0  0  0  0  0  0  0  0  0  0  0
   -2.7447    0.3460    3.5252 C   0  0  0  0  0  0  0  0  0  0  0  0
   -1.2922   -0.9905    1.7830 C   0  0  0  0  0  0  0  0  0  0  0  0
   -0.4626   -2.2121    1.4225 C   0  0  0  0  0  0  0  0  0  0  0  0
    0.7725   -0.9093    2.0404 C   0  0  0  0  0  0  0  0  0  0  0  0
    0.1538   -2.2966    2.0965 C   0  0  0  0  0  0  0  0  0  0  0  0
    1.4345   -0.9472    3.3426 C   0  0  0  0  0  0  0  0  0  0  0  0
    2.7722   -0.2477    3.5206 C   0  0  0  0  0  0  0  0  0  0  0  0
    0.8950   -1.5740    4.3603 C   0  0  0  0  0  0  0  0  0  0  0  0
    1.5817   -1.6148    5.7158 C   0  0  0  0  0  0  0  0  0  0  0  0
   -0.5568   -2.3162    4.1135 C   0  0  0  0  0  0  0  0  0  0  0  0
   -1.2647   -3.0679    5.2289 C   0  0  0  0  0  0  0  0  0  0  0  0
   -1.1714   -2.2116    2.6814 C   0  0  0  0  0  0  0  0  0  0  0  0
   -2.5049   -2.8649    2.3568 C   0  0  0  0  0  0  0  0  0  0  0  0
   -0.5111   -1.5486    1.7689 C   0  0  0  0  0  0  0  0  0  0  0  0
   -1.1020   -1.4394    0.3728 C   0  0  0  0  0  0  0  0  0  0  0  0
   -0.9977   -1.7748    3.7453 H   0  0  0  0  0  0  0  0  0  0  0  0
   -2.7851   -3.5376    3.6344 H   0  0  0  0  0  0  0  0  0  0  0  0
   -3.4773   -4.3910    1.5061 H   0  0  0  0  0  0  0  0  0  0  0  0
   -1.7472   -4.4899   -0.2425 H   0  0  0  0  0  0  0  0  0  0  0  0
    0.2586   -3.1277   -0.0460 H   0  0  0  0  0  0  0  0  0  0  0  0
    1.4684   -4.6309    1.4651 H   0  0  0  0  0  0  0  0  0  0  0  0
    3.2594   -6.2657    2.1242 H   0  0  0  0  0  0  0  0  0  0  0  0
    5.5627   -5.6287    1.9628 H   0  0  0  0  0  0  0  0  0  0  0  0
    6.0656   -3.2516    2.3593 H   0  0  0  0  0  0  0  0  0  0  0  0
    4.3026   -1.5872    2.1626 H   0  0  0  0  0  0  0  0  0  0  0  0
   -2.6481    0.8736    2.4197 H   0  0  0  0  0  0  0  0  0  0  0  0
   -2.6481   -0.8737    2.4197 H   0  0  0  0  0  0  0  0  0  0  0  0
   -1.2453    0.0000    2.9870 H   0  0  0  0  0  0  0  0  0  0  0  0
   -3.2377   -0.8736   -1.8205 H   0  0  0  0  0  0  0  0  0  0  0  0
   -3.2377    0.8737   -1.8205 H   0  0  0  0  0  0  0  0  0  0  0  0
   -2.0428    0.0000   -2.7489 H   0  0  0  0  0  0  0  0  0  0  0  0
   -2.5788    0.3495    5.7357 H   0  0  0  0  0  0  0  0  0  0  0  0
   -4.0166   -0.4553    5.1544 H   0  0  0  0  0  0  0  0  0  0  0  0
   -3.5371   -0.6230    6.8262 H   0  0  0  0  0  0  0  0  0  0  0  0
   -1.3453   -3.5868    2.8826 H   0  0  0  0  0  0  0  0  0  0  0  0
    0.0926   -2.7820    3.4640 H   0  0  0  0  0  0  0  0  0  0  0  0
   -0.8657   -3.7545    4.5544 H   0  0  0  0  0  0  0  0  0  0  0  0
   -2.1406    1.2251    3.4401 H   0  0  0  0  0  0  0  0  0  0  0  0
   -3.5785    0.4203    2.8587 H   0  0  0  0  0  0  0  0  0  0  0  0
   -3.0989    0.2526    4.5305 H   0  0  0  0  0  0  0  0  0  0  0  0
   -0.9071   -2.7112    0.5869 H   0  0  0  0  0  0  0  0  0  0  0  0
    0.5307   -1.9064    1.1683 H   0  0  0  0  0  0  0  0  0  0  0  0
   -0.4276   -2.8788    2.2587 H   0  0  0  0  0  0  0  0  0  0  0  0
   -0.6121   -2.3759    1.3535 H   0  0  0  0  0  0  0  0  0  0  0  0
    0.9087   -3.0316    1.9105 H   0  0  0  0  0  0  0  0  0  0  0  0
   -0.2709   -2.4588    3.0652 H   0  0  0  0  0  0  0  0  0  0  0  0
    2.6838    0.5039    4.2770 H   0  0  0  0  0  0  0  0  0  0  0  0
    3.5125   -0.9628    3.8130 H   0  0  0  0  0  0  0  0  0  0  0  0
    3.0619    0.2082    2.5970 H   0  0  0  0  0  0  0  0  0  0  0  0
    2.5383   -2.0839    5.6170 H   0  0  0  0  0  0  0  0  0  0  0  0
    1.7096   -0.6173    6.0810 H   0  0  0  0  0  0  0  0  0  0  0  0
    0.9805   -2.1721    6.4035 H   0  0  0  0  0  0  0  0  0  0  0  0
   -0.6396   -3.8645    5.5748 H   0  0  0  0  0  0  0  0  0  0  0  0
   -1.4683   -2.3975    6.0376 H   0  0  0  0  0  0  0  0  0  0  0  0
   -2.1845   -3.4710    4.8596 H   0  0  0  0  0  0  0  0  0  0  0  0
   -2.4353   -3.9196    2.5231 H   0  0  0  0  0  0  0  0  0  0  0  0
   -3.2661   -2.4540    2.9867 H   0  0  0  0  0  0  0  0  0  0  0  0
   -2.7522   -2.6809    1.3322 H   0  0  0  0  0  0  0  0  0  0  0  0
   -1.2247   -2.4188   -0.0402 H   0  0  0  0  0  0  0  0  0  0  0  0
   -2.0534   -0.9527    0.4253 H   0  0  0  0  0  0  0  0  0  0  0  0
   -0.4438   -0.8698   -0.2495 H   0  0  0  0  0  0  0  0  0  0  0  0
  1  2  1  0  0  0  0
  1  4  1  0  0  0  0
  2  3  1  0  0  0  0
  2  4  1  0  0  0  0
  2  5  1  0  0  0  0
  2 30  1  0  0  0  0
  2 32  1  0  0  0  0
  2 34  1  0  0  0  0
  2 36  1  0  0  0  0
  2 38  1  0  0  0  0
  2 40  1  0  0  0  0
  3  4  1  0  0  0  0
  4  5  1  0  0  0  0
  4 18  1  0  0  0  0
  4 20  1  0  0  0  0
  4 22  1  0  0  0  0
  4 24  1  0  0  0  0
  4 26  1  0  0  0  0
  4 28  1  0  0  0  0
  5  6  1  0  0  0  0
  5 12  1  0  0  0  0
  6  7  1  0  0  0  0
  6 11  2  0  0  0  0
  7  8  2  0  0  0  0
  7 42  1  0  0  0  0
  8  9  1  0  0  0  0
  8 43  1  0  0  0  0
  9 10  2  0  0  0  0
  9 44  1  0  0  0  0
 10 11  1  0  0  0  0
 10 45  1  0  0  0  0
 11 46  1  0  0  0  0
 12 13  1  0  0  0  0
 12 17  2  0  0  0  0
 13 14  2  0  0  0  0
 13 47  1  0  0  0  0
 14 15  1  0  0  0  0
 14 48  1  0  0  0  0
 15 16  2  0  0  0  0
 15 49  1  0  0  0  0
 16 17  1  0  0  0  0
 16 50  1  0  0  0  0
 17 51  1  0  0  0  0
 18 19  1  0  0  0  0
 18 20  1  0  0  0  0
 18 28  2  0  0  0  0
 19 52  1  0  0  0  0
 19 53  1  0  0  0  0
 19 54  1  0  0  0  0
 20 21  1  0  0  0  0
 20 22  2  0  0  0  0
 21 55  1  0  0  0  0
 21 56  1  0  0  0  0
 21 57  1  0  0  0  0
 22 23  1  0  0  0  0
 22 24  1  0  0  0  0
 23 58  1  0  0  0  0
 23 59  1  0  0  0  0
 23 60  1  0  0  0  0
 24 25  1  0  0  0  0
 24 26  2  0  0  0  0
 25 61  1  0  0  0  0
 25 62  1  0  0  0  0
 25 63  1  0  0  0  0
 26 27  1  0  0  0  0
 26 28  1  0  0  0  0
 27 64  1  0  0  0  0
 27 65  1  0  0  0  0
 27 66  1  0  0  0  0
 28 29  1  0  0  0  0
 29 67  1  0  0  0  0
 29 68  1  0  0  0  0
 29 69  1  0  0  0  0
 30 31  1  0  0  0  0
 30 32  1  0  0  0  0
 30 40  2  0  0  0  0
 31 70  1  0  0  0  0
 31 71  1  0  0  0  0
 31 72  1  0  0  0  0
 32 33  1  0  0  0  0
 32 34  2  0  0  0  0
 33 73  1  0  0  0  0
 33 74  1  0  0  0  0
 33 75  1  0  0  0  0
 34 35  1  0  0  0  0
 34 36  1  0  0  0  0
 35 76  1  0  0  0  0
 35 77  1  0  0  0  0
 35 78  1  0  0  0  0
 36 37  1  0  0  0  0
 36 38  2  0  0  0  0
 37 79  1  0  0  0  0
 37 80  1  0  0  0  0
 37 81  1  0  0  0  0
 38 39  1  0  0  0  0
 38 40  1  0  0  0  0
 39 82  1  0  0  0  0
 39 83  1  0  0  0  0
 39 84  1  0  0  0  0
 40 41  1  0  0  0  0
 41 85  1  0  0  0  0
 41 86  1  0  0  0  0
 41 87  1  0  0  0  0
M  CHG  1   5   1
M  END
$$$$
