
 OpenBabel09252515553D

 53 57  0  0  0  0  0  0  0  0999 V2000
    0.9925   -0.0929   -0.0362 I   0  0  0  0  0  0  0  0  0  0  0  0
    3.7025   -0.0929   -0.0362 Cu  0  0  0  0  0  0  0  0  0  0  0  0
    4.3960    1.1099   -0.0357 S   0  0  0  0  0  3  0  0  0  0  0  0
    5.6630    1.1592    0.3098 P   0  0  0  0  0  0  0  0  0  0  0  0
    6.4212   -0.0707    0.7180 C   0  0  0  0  0  0  0  0  0  0  0  0
    5.6849   -1.3146    0.3138 P   0  0  0  0  0  0  0  0  0  0  0  0
    4.3849   -1.2764   -0.0366 S   0  0  0  0  0  3  0  0  0  0  0  0
    6.0050    0.1663   -0.7126 C   0  0  0  0  0  0  0  0  0  0  0  0
    6.8133    0.1521   -1.8373 C   0  0  0  0  0  0  0  0  0  0  0  0
    7.0631    1.4347   -2.3800 C   0  0  0  0  0  0  0  0  0  0  0  0
    6.3470    2.5123   -2.1154 C   0  0  0  0  0  0  0  0  0  0  0  0
    5.5169    2.4398   -1.0314 C   0  0  0  0  0  0  0  0  0  0  0  0
    5.3220    1.2520   -0.3688 C   0  0  0  0  0  0  0  0  0  0  0  0
    5.2164   -1.1251    2.0726 C   0  0  0  0  0  0  0  0  0  0  0  0
    5.7013   -0.0450    2.7916 C   0  0  0  0  0  0  0  0  0  0  0  0
    5.5418   -0.1704    4.1919 C   0  0  0  0  0  0  0  0  0  0  0  0
    4.7128   -1.0145    4.7787 C   0  0  0  0  0  0  0  0  0  0  0  0
    4.2145   -2.0198    3.9973 C   0  0  0  0  0  0  0  0  0  0  0  0
    4.4370   -2.0373    2.6415 C   0  0  0  0  0  0  0  0  0  0  0  0
    4.1214    0.4286    0.9719 C   0  0  0  0  0  0  0  0  0  0  0  0
    3.0311    0.2323    0.1404 C   0  0  0  0  0  0  0  0  0  0  0  0
    1.8254   -0.0372    0.8300 C   0  0  0  0  0  0  0  0  0  0  0  0
    1.7542   -0.4308    2.0886 C   0  0  0  0  0  0  0  0  0  0  0  0
    2.8858   -0.2734    2.8398 C   0  0  0  0  0  0  0  0  0  0  0  0
    4.0703    0.1131    2.2607 C   0  0  0  0  0  0  0  0  0  0  0  0
    6.7315    2.1770    1.3921 C   0  0  0  0  0  0  0  0  0  0  0  0
    6.2026    2.9986    2.3738 C   0  0  0  0  0  0  0  0  0  0  0  0
    7.0971    3.9952    2.8307 C   0  0  0  0  0  0  0  0  0  0  0  0
    8.4051    3.9670    2.6506 C   0  0  0  0  0  0  0  0  0  0  0  0
    8.8714    3.0855    1.7152 C   0  0  0  0  0  0  0  0  0  0  0  0
    8.0330    2.1686    1.1285 C   0  0  0  0  0  0  0  0  0  0  0  0
    6.5278   -0.0681    1.7826 H   0  0  0  0  0  0  0  0  0  0  0  0
    7.3812   -0.0630    0.2454 H   0  0  0  0  0  0  0  0  0  0  0  0
    7.2127   -0.7472   -2.2575 H   0  0  0  0  0  0  0  0  0  0  0  0
    7.8896    1.5388   -3.0515 H   0  0  0  0  0  0  0  0  0  0  0  0
    6.4130    3.3948   -2.7170 H   0  0  0  0  0  0  0  0  0  0  0  0
    5.0116    3.3207   -0.6943 H   0  0  0  0  0  0  0  0  0  0  0  0
    4.6135    1.2013    0.4314 H   0  0  0  0  0  0  0  0  0  0  0  0
    6.1553    0.8069    2.3300 H   0  0  0  0  0  0  0  0  0  0  0  0
    6.1340    0.4627    4.8191 H   0  0  0  0  0  0  0  0  0  0  0  0
    4.4454   -0.9169    5.8101 H   0  0  0  0  0  0  0  0  0  0  0  0
    3.6431   -2.8041    4.4480 H   0  0  0  0  0  0  0  0  0  0  0  0
    3.9780   -2.7928    2.0387 H   0  0  0  0  0  0  0  0  0  0  0  0
    3.0950    0.2800   -0.9266 H   0  0  0  0  0  0  0  0  0  0  0  0
    0.9073    0.0866    0.2945 H   0  0  0  0  0  0  0  0  0  0  0  0
    0.8592   -0.8502    2.4984 H   0  0  0  0  0  0  0  0  0  0  0  0
    2.8482   -0.4538    3.8938 H   0  0  0  0  0  0  0  0  0  0  0  0
    4.9597    0.1602    2.8537 H   0  0  0  0  0  0  0  0  0  0  0  0
    5.2078    2.8895    2.7525 H   0  0  0  0  0  0  0  0  0  0  0  0
    6.6852    4.8297    3.3587 H   0  0  0  0  0  0  0  0  0  0  0  0
    9.0645    4.6000    3.2069 H   0  0  0  0  0  0  0  0  0  0  0  0
    9.9040    3.1101    1.4360 H   0  0  0  0  0  0  0  0  0  0  0  0
    8.4323    1.4412    0.4530 H   0  0  0  0  0  0  0  0  0  0  0  0
  1  2  1  0  0  0  0
  2  3  1  0  0  0  0
  2  7  1  0  0  0  0
  3  4  2  0  0  0  0
  4  5  1  0  0  0  0
  4 20  1  0  0  0  0
  4 26  1  0  0  0  0
  5  6  1  0  0  0  0
  5 32  1  0  0  0  0
  5 33  1  0  0  0  0
  6  7  2  0  0  0  0
  6  8  1  0  0  0  0
  6 14  1  0  0  0  0
  8  9  1  0  0  0  0
  8 13  2  0  0  0  0
  9 10  2  0  0  0  0
  9 34  1  0  0  0  0
 10 11  1  0  0  0  0
 10 35  1  0  0  0  0
 11 12  2  0  0  0  0
 11 36  1  0  0  0  0
 12 13  1  0  0  0  0
 12 37  1  0  0  0  0
 13 38  1  0  0  0  0
 14 15  1  0  0  0  0
 14 19  2  0  0  0  0
 15 16  2  0  0  0  0
 15 39  1  0  0  0  0
 16 17  1  0  0  0  0
 16 40  1  0  0  0  0
 17 18  2  0  0  0  0
 17 41  1  0  0  0  0
 18 19  1  0  0  0  0
 18 42  1  0  0  0  0
 19 43  1  0  0  0  0
 20 21  1  0  0  0  0
 20 25  2  0  0  0  0
 21 22  2  0  0  0  0
 21 44  1  0  0  0  0
 22 23  1  0  0  0  0
 22 45  1  0  0  0  0
 23 24  2  0  0  0  0
 23 46  1  0  0  0  0
 24 25  1  0  0  0  0
 24 47  1  0  0  0  0
 25 48  1  0  0  0  0
 26 27  1  0  0  0  0
 26 31  2  0  0  0  0
 27 28  2  0  0  0  0
 27 49  1  0  0  0  0
 28 29  1  0  0  0  0
 28 50  1  0  0  0  0
 29 30  2  0  0  0  0
 29 51  1  0  0  0  0
 30 31  1  0  0  0  0
 30 52  1  0  0  0  0
 31 53  1  0  0  0  0
M  END
$$$$
