
 OpenBabel09252515513D

 53 52  0  0  0  0  0  0  0  0999 V2000
    0.9801    0.0758   -0.0621 C   0  0  0  0  0  0  0  0  0  0  0  0
    0.2534   -1.9606    0.2163 Rh  0  0  0  0  0  0  0  0  0  0  0  0
    2.5478   -2.5740    1.7182 I   0  0  0  0  0  0  0  0  0  0  0  0
   -1.0712   -1.1670    2.5639 I   0  0  0  0  0  0  0  0  0  0  0  0
   -0.4733   -3.9970    0.4946 C   0  0  0  0  0  0  0  0  0  0  0  0
   -0.8793   -5.1348    0.6501 O   0  0  0  0  0  0  0  0  0  0  0  0
   -1.7797   -1.4170   -1.1146 P   0  0  0  0  0  4  0  0  0  0  0  0
   -1.3730   -0.1317   -2.3522 C   0  0  0  0  0  0  0  0  0  0  0  0
   -0.2837   -0.6470   -3.2787 C   0  0  0  0  0  0  0  0  0  0  0  0
   -2.3691   -2.9232   -1.9706 C   0  0  0  0  0  0  0  0  0  0  0  0
   -2.7069   -3.9908   -0.9427 C   0  0  0  0  0  0  0  0  0  0  0  0
   -3.0910   -0.7966    0.0008 C   0  0  0  0  0  0  0  0  0  0  0  0
   -3.4288   -1.8641    1.0287 C   0  0  0  0  0  0  0  0  0  0  0  0
    1.4272   -2.6638   -1.8641 P   0  0  0  0  0  4  0  0  0  0  0  0
    0.7823   -1.7040   -3.2825 C   0  0  0  0  0  0  0  0  0  0  0  0
    1.0212   -0.2223   -3.0422 C   0  0  0  0  0  0  0  0  0  0  0  0
    3.2223   -2.3564   -1.6852 C   0  0  0  0  0  0  0  0  0  0  0  0
    3.7580   -3.1536   -0.5071 C   0  0  0  0  0  0  0  0  0  0  0  0
    1.1397   -4.4477   -2.1534 C   0  0  0  0  0  0  0  0  0  0  0  0
    1.6753   -5.2449   -0.9753 C   0  0  0  0  0  0  0  0  0  0  0  0
    0.6234    0.6939    0.7352 H   0  0  0  0  0  0  0  0  0  0  0  0
    0.6234    0.4573   -0.9960 H   0  0  0  0  0  0  0  0  0  0  0  0
    2.0501    0.0758   -0.0621 H   0  0  0  0  0  0  0  0  0  0  0  0
   -2.2466    0.1019   -2.9241 H   0  0  0  0  0  0  0  0  0  0  0  0
   -1.0283    0.7490   -1.8517 H   0  0  0  0  0  0  0  0  0  0  0  0
   -0.6284   -1.5277   -3.7792 H   0  0  0  0  0  0  0  0  0  0  0  0
   -0.0460    0.1045   -4.0023 H   0  0  0  0  0  0  0  0  0  0  0  0
    0.5899   -0.8806   -2.7068 H   0  0  0  0  0  0  0  0  0  0  0  0
   -3.2428   -2.6896   -2.5425 H   0  0  0  0  0  0  0  0  0  0  0  0
   -1.6023   -3.2860   -2.6228 H   0  0  0  0  0  0  0  0  0  0  0  0
   -3.4737   -3.6280   -0.2905 H   0  0  0  0  0  0  0  0  0  0  0  0
   -3.0516   -4.8715   -1.4432 H   0  0  0  0  0  0  0  0  0  0  0  0
   -1.8332   -4.2244   -0.3708 H   0  0  0  0  0  0  0  0  0  0  0  0
   -2.7464    0.0841    0.5013 H   0  0  0  0  0  0  0  0  0  0  0  0
   -3.9647   -0.5630   -0.5711 H   0  0  0  0  0  0  0  0  0  0  0  0
   -2.5552   -2.0977    1.6006 H   0  0  0  0  0  0  0  0  0  0  0  0
   -4.1956   -1.5014    1.6809 H   0  0  0  0  0  0  0  0  0  0  0  0
   -3.7735   -2.7448    0.5282 H   0  0  0  0  0  0  0  0  0  0  0  0
    1.2867   -2.0062   -4.1765 H   0  0  0  0  0  0  0  0  0  0  0  0
   -0.2673   -1.8837   -3.3871 H   0  0  0  0  0  0  0  0  0  0  0  0
    2.0708   -0.0425   -2.9376 H   0  0  0  0  0  0  0  0  0  0  0  0
    0.6441    0.3389   -3.8715 H   0  0  0  0  0  0  0  0  0  0  0  0
    0.5168    0.0799   -2.1482 H   0  0  0  0  0  0  0  0  0  0  0  0
    3.7267   -2.6586   -2.5792 H   0  0  0  0  0  0  0  0  0  0  0  0
    3.3905   -1.3133   -1.5161 H   0  0  0  0  0  0  0  0  0  0  0  0
    3.5898   -4.1966   -0.6763 H   0  0  0  0  0  0  0  0  0  0  0  0
    4.8076   -2.9738   -0.4025 H   0  0  0  0  0  0  0  0  0  0  0  0
    3.2536   -2.8514    0.3868 H   0  0  0  0  0  0  0  0  0  0  0  0
    0.0900   -4.6274   -2.2580 H   0  0  0  0  0  0  0  0  0  0  0  0
    1.6441   -4.7499   -3.0474 H   0  0  0  0  0  0  0  0  0  0  0  0
    1.1709   -4.9427   -0.0813 H   0  0  0  0  0  0  0  0  0  0  0  0
    1.5072   -6.2880   -1.1445 H   0  0  0  0  0  0  0  0  0  0  0  0
    2.7249   -5.0652   -0.8707 H   0  0  0  0  0  0  0  0  0  0  0  0
  1  2  1  0  0  0  0
  1 21  1  0  0  0  0
  1 22  1  0  0  0  0
  1 23  1  0  0  0  0
  2  3  1  0  0  0  0
  2  4  1  0  0  0  0
  2  5  1  0  0  0  0
  2  7  1  0  0  0  0
  2 14  1  0  0  0  0
  5  6  3  0  0  0  0
  7  8  1  0  0  0  0
  7 10  1  0  0  0  0
  7 12  1  0  0  0  0
  8  9  1  0  0  0  0
  8 24  1  0  0  0  0
  8 25  1  0  0  0  0
  9 26  1  0  0  0  0
  9 27  1  0  0  0  0
  9 28  1  0  0  0  0
 10 11  1  0  0  0  0
 10 29  1  0  0  0  0
 10 30  1  0  0  0  0
 11 31  1  0  0  0  0
 11 32  1  0  0  0  0
 11 33  1  0  0  0  0
 12 13  1  0  0  0  0
 12 34  1  0  0  0  0
 12 35  1  0  0  0  0
 13 36  1  0  0  0  0
 13 37  1  0  0  0  0
 13 38  1  0  0  0  0
 14 15  1  0  0  0  0
 14 17  1  0  0  0  0
 14 19  1  0  0  0  0
 15 16  1  0  0  0  0
 15 39  1  0  0  0  0
 15 40  1  0  0  0  0
 16 41  1  0  0  0  0
 16 42  1  0  0  0  0
 16 43  1  0  0  0  0
 17 18  1  0  0  0  0
 17 44  1  0  0  0  0
 17 45  1  0  0  0  0
 18 46  1  0  0  0  0
 18 47  1  0  0  0  0
 18 48  1  0  0  0  0
 19 20  1  0  0  0  0
 19 49  1  0  0  0  0
 19 50  1  0  0  0  0
 20 51  1  0  0  0  0
 20 52  1  0  0  0  0
 20 53  1  0  0  0  0
M  END
$$$$
