
     RDKit          3D

 57 60  0  0  0  0  0  0  0  0999 V2000
   -5.2645    0.8288    2.0323 C   0  0  0  0  0  0  0  0  0  0  0  0
   -4.1712    0.0425    2.3906 C   0  0  0  0  0  0  0  0  0  0  0  0
   -3.2534   -0.3701    1.4200 C   0  0  0  0  0  0  0  0  0  0  0  0
   -3.4108    0.0239    0.0842 C   0  0  0  0  0  0  0  0  0  0  0  0
   -2.5366   -0.4060   -0.9995 N   0  0  0  0  0  0  0  0  0  0  0  0
   -1.1657   -0.7183   -0.6105 C   0  0  0  0  0  0  0  0  0  0  0  0
   -0.2664    0.2888   -0.5862 C   0  0  0  0  0  0  0  0  0  0  0  0
    1.1187    0.0465   -0.3185 C   0  0  0  0  0  0  0  0  0  0  0  0
    2.2864   -0.1484   -0.1104 C   0  0  0  0  0  0  0  0  0  0  0  0
    3.6795   -0.3855    0.1305 C   0  0  0  0  0  0  0  0  0  0  0  0
    4.2443   -1.5765   -0.3450 C   0  0  0  0  0  0  0  0  0  0  0  0
    5.5952   -1.8453   -0.1328 C   0  0  0  0  0  0  0  0  0  0  0  0
    6.3837   -0.9254    0.5533 C   0  0  0  0  0  0  0  0  0  0  0  0
    5.8264    0.2670    1.0270 C   0  0  0  0  0  0  0  0  0  0  0  0
    4.4716    0.5502    0.8187 C   0  0  0  0  0  0  0  0  0  0  0  0
    3.8382    1.6875    1.2536 O   0  0  0  0  0  0  0  0  0  0  0  0
    4.6497    2.7241    1.7897 C   0  0  0  0  0  0  0  0  0  0  0  0
   -0.5477    2.1291   -0.9794 Si  0  0  0  0  0  4  0  0  0  0  0  0
    1.1014    3.0011   -1.3372 C   0  0  0  0  0  0  0  0  0  0  0  0
   -1.3222    3.0002    0.4934 C   0  0  0  0  0  0  0  0  0  0  0  0
   -1.6078    2.3498   -2.5151 C   0  0  0  0  0  0  0  0  0  0  0  0
   -0.9430   -2.1729   -0.4381 C   0  0  0  0  0  0  0  0  0  0  0  0
    0.0243   -2.8649    0.2818 C   0  0  0  0  0  0  0  0  0  0  0  0
   -0.0234   -4.2668    0.3358 C   0  0  0  0  0  0  0  0  0  0  0  0
   -1.0475   -4.9785   -0.3055 C   0  0  0  0  0  0  0  0  0  0  0  0
   -2.0400   -4.2965   -1.0028 C   0  0  0  0  0  0  0  0  0  0  0  0
   -1.9504   -2.9133   -1.0490 C   0  0  0  0  0  0  0  0  0  0  0  0
   -3.1203   -1.8535   -1.7965 S   0  0  0  0  0  6  0  0  0  0  0  0
   -4.4339   -2.2365   -1.3271 O   0  0  0  0  0  0  0  0  0  0  0  0
   -2.7826   -1.7855   -3.2032 O   0  0  0  0  0  0  0  0  0  0  0  0
   -4.5311    0.7882   -0.2680 C   0  0  0  0  0  0  0  0  0  0  0  0
   -5.4485    1.1976    0.7018 C   0  0  0  0  0  0  0  0  0  0  0  0
   -5.9805    1.1434    2.7878 H   0  0  0  0  0  0  0  0  0  0  0  0
   -4.0364   -0.2587    3.4268 H   0  0  0  0  0  0  0  0  0  0  0  0
   -2.4244   -0.9953    1.7351 H   0  0  0  0  0  0  0  0  0  0  0  0
    3.6333   -2.2959   -0.8847 H   0  0  0  0  0  0  0  0  0  0  0  0
    6.0313   -2.7700   -0.5031 H   0  0  0  0  0  0  0  0  0  0  0  0
    7.4375   -1.1345    0.7218 H   0  0  0  0  0  0  0  0  0  0  0  0
    6.4774    0.9512    1.5605 H   0  0  0  0  0  0  0  0  0  0  0  0
    4.0004    3.5785    2.0071 H   0  0  0  0  0  0  0  0  0  0  0  0
    5.1139    2.4120    2.7317 H   0  0  0  0  0  0  0  0  0  0  0  0
    5.4024    3.0538    1.0652 H   0  0  0  0  0  0  0  0  0  0  0  0
    0.9185    4.0451   -1.6079 H   0  0  0  0  0  0  0  0  0  0  0  0
    1.6226    2.5160   -2.1672 H   0  0  0  0  0  0  0  0  0  0  0  0
    1.7467    2.9859   -0.4545 H   0  0  0  0  0  0  0  0  0  0  0  0
   -1.2987    4.0852    0.3487 H   0  0  0  0  0  0  0  0  0  0  0  0
   -2.3634    2.7053    0.6340 H   0  0  0  0  0  0  0  0  0  0  0  0
   -0.7721    2.7696    1.4105 H   0  0  0  0  0  0  0  0  0  0  0  0
   -2.6412    2.0453   -2.3422 H   0  0  0  0  0  0  0  0  0  0  0  0
   -1.6179    3.4011   -2.8189 H   0  0  0  0  0  0  0  0  0  0  0  0
   -1.2070    1.7614   -3.3451 H   0  0  0  0  0  0  0  0  0  0  0  0
    0.8056   -2.3485    0.8295 H   0  0  0  0  0  0  0  0  0  0  0  0
    0.7351   -4.8079    0.8977 H   0  0  0  0  0  0  0  0  0  0  0  0
   -1.0732   -6.0645   -0.2434 H   0  0  0  0  0  0  0  0  0  0  0  0
   -2.8567   -4.8236   -1.4859 H   0  0  0  0  0  0  0  0  0  0  0  0
   -4.6954    1.0681   -1.3060 H   0  0  0  0  0  0  0  0  0  0  0  0
   -6.3100    1.7954    0.4150 H   0  0  0  0  0  0  0  0  0  0  0  0
  1  2  2  0
  2  3  1  0
  3  4  2  0
  4  5  1  0
  5  6  1  0
  6  7  2  0
  7  8  1  0
  8  9  3  0
  9 10  1  0
 10 11  2  0
 11 12  1  0
 12 13  2  0
 13 14  1  0
 14 15  2  0
 15 16  1  0
 16 17  1  0
  7 18  1  0
 18 19  1  0
 18 20  1  0
 18 21  1  0
  6 22  1  0
 22 23  2  0
 23 24  1  0
 24 25  2  0
 25 26  1  0
 26 27  2  0
 27 28  1  0
 28 29  2  0
 28 30  2  0
  4 31  1  0
 31 32  2  0
 32  1  1  0
 28  5  1  0
 15 10  1  0
 27 22  1  0
  1 33  1  0
  2 34  1  0
  3 35  1  0
 11 36  1  0
 12 37  1  0
 13 38  1  0
 14 39  1  0
 17 40  1  0
 17 41  1  0
 17 42  1  0
 19 43  1  0
 19 44  1  0
 19 45  1  0
 20 46  1  0
 20 47  1  0
 20 48  1  0
 21 49  1  0
 21 50  1  0
 21 51  1  0
 23 52  1  0
 24 53  1  0
 25 54  1  0
 26 55  1  0
 31 56  1  0
 32 57  1  0
M  END
