
     RDKit          3D

 23 24  0  0  0  0  0  0  0  0999 V2000
   -3.8215   -1.6050   -1.4185 O   0  0  0  0  0  0  0  0  0  0  0  0
   -3.1129   -0.8304   -0.8267 C   0  0  0  0  0  0  0  0  0  0  0  0
   -3.2526    0.5182   -0.1047 C   0  0  0  0  0  0  0  0  0  0  0  0
   -1.7280    0.5995   -0.2810 C   0  0  0  0  0  0  0  0  0  0  0  0
   -1.7604   -0.8292   -0.6706 N   0  0  0  0  0  0  0  0  0  0  0  0
   -0.7796    0.7360    1.2461 S   0  0  0  0  0  0  0  0  0  0  0  0
   -1.2678   -0.2190    2.2278 O   0  0  0  0  0  0  0  0  0  0  0  0
   -0.7111    2.1435    1.6058 O   0  0  0  0  0  0  0  0  0  0  0  0
    0.8923    0.2459    0.8536 C   0  0  0  0  0  0  0  0  0  0  0  0
    1.2732   -1.0892    1.0140 C   0  0  0  0  0  0  0  0  0  0  0  0
    2.5784   -1.4694    0.7036 C   0  0  0  0  0  0  0  0  0  0  0  0
    3.4933   -0.5189    0.2468 C   0  0  0  0  0  0  0  0  0  0  0  0
    3.1104    0.8164    0.1050 C   0  0  0  0  0  0  0  0  0  0  0  0
    1.8071    1.2061    0.4125 C   0  0  0  0  0  0  0  0  0  0  0  0
   -3.6370    0.4302    0.9146 H   0  0  0  0  0  0  0  0  0  0  0  0
   -3.8221    1.2669   -0.6600 H   0  0  0  0  0  0  0  0  0  0  0  0
   -1.3597    1.2472   -1.0826 H   0  0  0  0  0  0  0  0  0  0  0  0
   -1.2272   -1.2999   -1.3900 H   0  0  0  0  0  0  0  0  0  0  0  0
    0.5688   -1.8318    1.3835 H   0  0  0  0  0  0  0  0  0  0  0  0
    2.8872   -2.5050    0.8273 H   0  0  0  0  0  0  0  0  0  0  0  0
    4.5129   -0.8178    0.0131 H   0  0  0  0  0  0  0  0  0  0  0  0
    3.8336    1.5542   -0.2350 H   0  0  0  0  0  0  0  0  0  0  0  0
    1.5227    2.2515    0.3170 H   0  0  0  0  0  0  0  0  0  0  0  0
  1  2  2  0
  2  3  1  0
  3  4  1  0
  4  5  1  0
  4  6  1  0
  6  7  2  0
  6  8  2  0
  6  9  1  0
  9 10  2  0
 10 11  1  0
 11 12  2  0
 12 13  1  0
 13 14  2  0
  5  2  1  0
 14  9  1  0
  3 15  1  0
  3 16  1  0
  4 17  1  0
  5 18  1  0
 10 19  1  0
 11 20  1  0
 12 21  1  0
 13 22  1  0
 14 23  1  0
M  END
