
     RDKit          3D

 23 24  0  0  0  0  0  0  0  0999 V2000
   -3.4263   -0.6409   -0.5269 C   0  0  0  0  0  0  0  0  0  0  0  0
   -2.9020    0.4047   -1.2895 C   0  0  0  0  0  0  0  0  0  0  0  0
   -1.6824    0.9827   -0.9380 C   0  0  0  0  0  0  0  0  0  0  0  0
   -0.9919    0.4982    0.1763 C   0  0  0  0  0  0  0  0  0  0  0  0
    0.5721    1.2306    0.6313 S   0  0  0  0  0  6  0  0  0  0  0  0
    0.5454    2.5886    0.1118 O   0  0  0  0  0  0  0  0  0  0  0  0
    0.7200    1.0269    2.0633 O   0  0  0  0  0  0  0  0  0  0  0  0
    1.8461    0.3202   -0.2622 C   0  0  2  0  0  0  0  0  0  0  0  0
    1.8433   -1.0746    0.2364 N   0  0  0  0  0  0  0  0  0  0  0  0
    3.1876   -1.0764    0.4523 C   0  0  0  0  0  0  0  0  0  0  0  0
    3.9458   -2.0022    0.5948 O   0  0  0  0  0  0  0  0  0  0  0  0
    3.2689    0.4503    0.3043 C   0  0  0  0  0  0  0  0  0  0  0  0
   -1.5188   -0.5367    0.9541 C   0  0  0  0  0  0  0  0  0  0  0  0
   -2.7386   -1.1086    0.5945 C   0  0  0  0  0  0  0  0  0  0  0  0
   -4.3815   -1.0843   -0.7998 H   0  0  0  0  0  0  0  0  0  0  0  0
   -3.4518    0.7751   -2.1517 H   0  0  0  0  0  0  0  0  0  0  0  0
   -1.2904    1.8091   -1.5267 H   0  0  0  0  0  0  0  0  0  0  0  0
    1.7428    0.3795   -1.3501 H   0  0  0  0  0  0  0  0  0  0  0  0
    1.4603   -1.9016   -0.2027 H   0  0  0  0  0  0  0  0  0  0  0  0
    4.0210    0.7918   -0.4106 H   0  0  0  0  0  0  0  0  0  0  0  0
    3.3853    0.9758    1.2555 H   0  0  0  0  0  0  0  0  0  0  0  0
   -0.9946   -0.8956    1.8376 H   0  0  0  0  0  0  0  0  0  0  0  0
   -3.1601   -1.9125    1.1938 H   0  0  0  0  0  0  0  0  0  0  0  0
  1  2  2  0
  2  3  1  0
  3  4  2  0
  4  5  1  0
  5  6  2  0
  5  7  2  0
  5  8  1  0
  8  9  1  0
  9 10  1  0
 10 11  2  0
 10 12  1  0
  4 13  1  0
 13 14  2  0
 14  1  1  0
 12  8  1  0
  1 15  1  0
  2 16  1  0
  3 17  1  0
  8 18  1  6
  9 19  1  0
 12 20  1  0
 12 21  1  0
 13 22  1  0
 14 23  1  0
M  END
