
     RDKit          3D

 62 63  0  0  0  0  0  0  0  0999 V2000
   -2.2399    0.5054   -1.2366 C   0  0  0  0  0  0  0  0  0  0  0  0
   -1.6284   -0.1346    0.3624 Pt  0  0  0  0  0  6  0  0  0  0  0  0
   -0.7365   -0.8724    1.8495 C   0  0  0  0  0  0  0  0  0  0  0  0
   -3.0595   -0.3711    1.2537 C   0  0  0  0  0  0  0  0  0  0  0  0
    0.1495    0.1432   -0.2619 N   0  0  0  0  0  0  0  0  0  0  0  0
    0.9558   -0.6560   -0.9976 N   0  0  0  0  0  0  0  0  0  0  0  0
    2.1245   -0.2168   -1.2656 C   0  0  0  0  0  0  0  0  0  0  0  0
    3.0311   -1.0928   -2.0514 C   0  0  0  0  0  0  0  0  0  0  0  0
    4.3864   -1.1131   -1.3638 C   0  0  0  0  0  0  0  0  0  0  0  0
    4.2369   -0.7795    0.0828 C   0  0  0  0  0  0  0  0  0  0  0  0
    4.8255    0.5398    0.3998 C   0  0  0  0  0  0  0  0  0  0  0  0
    4.5227    1.6522   -0.5411 C   0  0  0  0  0  0  0  0  0  0  0  0
    3.1183    2.1120   -0.4942 C   0  0  0  0  0  0  0  0  0  0  0  0
    2.1871    0.9750   -0.6974 C   0  0  0  0  0  0  0  0  0  0  0  0
    1.0425    1.1283   -0.1438 N   0  0  0  0  0  0  0  0  0  0  0  0
   -2.0410   -2.1170   -0.4889 P   0  0  0  0  0  4  0  0  0  0  0  0
   -3.6636   -2.2538   -1.2844 C   0  0  0  0  0  0  0  0  0  0  0  0
   -1.9617   -3.3564    0.7121 C   0  0  0  0  0  0  0  0  0  0  0  0
   -0.8104   -2.4325   -1.7223 C   0  0  0  0  0  0  0  0  0  0  0  0
   -1.8805    1.9306    1.1104 P   0  0  0  0  0  4  0  0  0  0  0  0
   -3.5295    2.6115    0.8907 C   0  0  0  0  0  0  0  0  0  0  0  0
   -0.7748    2.9822    0.2564 C   0  0  0  0  0  0  0  0  0  0  0  0
   -1.4541    1.9949    2.8063 C   0  0  0  0  0  0  0  0  0  0  0  0
   -1.9739    1.5313   -1.6288 H   0  0  0  0  0  0  0  0  0  0  0  0
   -3.3363    0.5819   -1.4110 H   0  0  0  0  0  0  0  0  0  0  0  0
   -1.9618    0.0496   -2.2449 H   0  0  0  0  0  0  0  0  0  0  0  0
   -1.2518   -1.4469    2.5994 H   0  0  0  0  0  0  0  0  0  0  0  0
   -0.1884   -0.1746    2.5379 H   0  0  0  0  0  0  0  0  0  0  0  0
    0.0455   -1.6883    1.7019 H   0  0  0  0  0  0  0  0  0  0  0  0
   -4.0590   -0.1253    0.7874 H   0  0  0  0  0  0  0  0  0  0  0  0
   -3.4560   -1.3719    1.6753 H   0  0  0  0  0  0  0  0  0  0  0  0
   -3.3406    0.0379    2.2970 H   0  0  0  0  0  0  0  0  0  0  0  0
    3.1645   -0.7591   -3.0805 H   0  0  0  0  0  0  0  0  0  0  0  0
    2.6712   -2.1400   -2.0869 H   0  0  0  0  0  0  0  0  0  0  0  0
    4.7922   -2.1505   -1.4965 H   0  0  0  0  0  0  0  0  0  0  0  0
    5.0733   -0.4716   -1.9362 H   0  0  0  0  0  0  0  0  0  0  0  0
    3.1942   -0.9323    0.4589 H   0  0  0  0  0  0  0  0  0  0  0  0
    4.8266   -1.5486    0.6737 H   0  0  0  0  0  0  0  0  0  0  0  0
    4.5298    0.8666    1.4447 H   0  0  0  0  0  0  0  0  0  0  0  0
    5.9418    0.3948    0.4449 H   0  0  0  0  0  0  0  0  0  0  0  0
    5.1497    2.5290   -0.1775 H   0  0  0  0  0  0  0  0  0  0  0  0
    4.8949    1.4959   -1.5740 H   0  0  0  0  0  0  0  0  0  0  0  0
    2.9486    2.6557    0.4397 H   0  0  0  0  0  0  0  0  0  0  0  0
    2.9397    2.8602   -1.3091 H   0  0  0  0  0  0  0  0  0  0  0  0
   -4.3409   -2.9786   -0.8019 H   0  0  0  0  0  0  0  0  0  0  0  0
   -4.2154   -1.2756   -1.2290 H   0  0  0  0  0  0  0  0  0  0  0  0
   -3.5992   -2.4969   -2.3517 H   0  0  0  0  0  0  0  0  0  0  0  0
   -2.7282   -4.0956    0.5568 H   0  0  0  0  0  0  0  0  0  0  0  0
   -0.9293   -3.8156    0.7753 H   0  0  0  0  0  0  0  0  0  0  0  0
   -2.1399   -3.0321    1.7851 H   0  0  0  0  0  0  0  0  0  0  0  0
   -1.2881   -3.1817   -2.3629 H   0  0  0  0  0  0  0  0  0  0  0  0
    0.1359   -2.8759   -1.3804 H   0  0  0  0  0  0  0  0  0  0  0  0
   -0.6682   -1.5755   -2.4495 H   0  0  0  0  0  0  0  0  0  0  0  0
   -4.0095    2.8537    1.8592 H   0  0  0  0  0  0  0  0  0  0  0  0
   -3.5611    3.4817    0.2357 H   0  0  0  0  0  0  0  0  0  0  0  0
   -4.2265    1.8700    0.3994 H   0  0  0  0  0  0  0  0  0  0  0  0
   -1.2698    3.9524    0.1028 H   0  0  0  0  0  0  0  0  0  0  0  0
    0.1566    3.2327    0.8057 H   0  0  0  0  0  0  0  0  0  0  0  0
   -0.5434    2.7040   -0.8160 H   0  0  0  0  0  0  0  0  0  0  0  0
   -0.3785    2.2211    2.9860 H   0  0  0  0  0  0  0  0  0  0  0  0
   -2.1295    2.6601    3.3313 H   0  0  0  0  0  0  0  0  0  0  0  0
   -1.6697    0.9792    3.2639 H   0  0  0  0  0  0  0  0  0  0  0  0
  1  2  1  0
  2  3  1  0
  2  4  1  0
  2  5  1  0
  5  6  1  0
  6  7  2  0
  7  8  1  0
  8  9  1  0
  9 10  1  0
 10 11  1  0
 11 12  1  0
 12 13  1  0
 13 14  1  0
 14 15  2  0
  2 16  1  0
 16 17  1  0
 16 18  1  0
 16 19  1  0
  2 20  1  0
 20 21  1  0
 20 22  1  0
 20 23  1  0
 15  5  1  0
 14  7  1  0
  1 24  1  0
  1 25  1  0
  1 26  1  0
  3 27  1  0
  3 28  1  0
  3 29  1  0
  4 30  1  0
  4 31  1  0
  4 32  1  0
  8 33  1  0
  8 34  1  0
  9 35  1  0
  9 36  1  0
 10 37  1  0
 10 38  1  0
 11 39  1  0
 11 40  1  0
 12 41  1  0
 12 42  1  0
 13 43  1  0
 13 44  1  0
 17 45  1  0
 17 46  1  0
 17 47  1  0
 18 48  1  0
 18 49  1  0
 18 50  1  0
 19 51  1  0
 19 52  1  0
 19 53  1  0
 21 54  1  0
 21 55  1  0
 21 56  1  0
 22 57  1  0
 22 58  1  0
 22 59  1  0
 23 60  1  0
 23 61  1  0
 23 62  1  0
M  RAD  2  16   2  20   2
M  END
