
 OpenBabel09252519573D

 46 54  0  0  0  0  0  0  0  0999 V2000
    0.9406    0.0748   -0.0297 Cl  0  0  0  0  0  0  0  0  0  0  0  0
    3.3706    0.0748   -0.0297 Ir  0  0  0  0  0  0  0  0  0  0  0  0
    4.4390   -0.5455   -0.7141 C   0  0  0  0  0  0  0  0  0  0  0  0
    5.3943    0.1893   -1.3349 C   0  0  0  0  0  0  0  0  0  0  0  0
    5.3663    1.6010   -1.3181 C   0  0  0  0  0  0  0  0  0  0  0  0
    6.3621    2.3488   -1.9615 C   0  0  0  0  0  0  0  0  0  0  0  0
    6.3281    3.7266   -1.9383 C   0  0  0  0  0  0  0  0  0  0  0  0
    5.3138    4.4124   -1.2818 C   0  0  0  0  0  0  0  0  0  0  0  0
    4.2915    3.6894   -0.6212 C   0  0  0  0  0  0  0  0  0  0  0  0
    3.2499    4.3393    0.0519 C   0  0  0  0  0  0  0  0  0  0  0  0
    2.2687    3.6043    0.6847 C   0  0  0  0  0  0  0  0  0  0  0  0
    2.2896    2.2197    0.6700 C   0  0  0  0  0  0  0  0  0  0  0  0
    3.3115    1.5438    0.0097 C   0  0  0  0  0  0  0  0  0  0  0  0
    4.3237    2.2775   -0.6432 C   0  0  0  0  0  0  0  0  0  0  0  0
    3.0814   -0.1409    2.1101 C   0  0  0  0  0  0  0  0  0  0  0  0
    2.1438   -0.3997    3.2781 C   0  0  0  0  0  0  0  0  0  0  0  0
    1.9809   -0.6253    2.7079 C   0  0  0  0  0  0  0  0  0  0  0  0
    1.7707   -2.0666    2.2732 C   0  0  0  0  0  0  0  0  0  0  0  0
    2.1072   -0.5822    4.0441 C   0  0  0  0  0  0  0  0  0  0  0  0
    1.0600   -1.0366    5.0477 C   0  0  0  0  0  0  0  0  0  0  0  0
    3.2933   -0.0790    4.3427 C   0  0  0  0  0  0  0  0  0  0  0  0
    3.8696    0.1461    5.7310 C   0  0  0  0  0  0  0  0  0  0  0  0
    3.9469    0.2211    3.0423 C   0  0  0  0  0  0  0  0  0  0  0  0
    5.3269    0.8209    2.8276 C   0  0  0  0  0  0  0  0  0  0  0  0
    4.4954   -1.6136   -0.7431 H   0  0  0  0  0  0  0  0  0  0  0  0
    7.1550    1.8461   -2.4748 H   0  0  0  0  0  0  0  0  0  0  0  0
    7.0979    4.2787   -2.4357 H   0  0  0  0  0  0  0  0  0  0  0  0
    5.3054    5.4823   -1.2754 H   0  0  0  0  0  0  0  0  0  0  0  0
    3.2148    5.4085    0.0755 H   0  0  0  0  0  0  0  0  0  0  0  0
    1.4780    4.1128    1.1956 H   0  0  0  0  0  0  0  0  0  0  0  0
    1.5188    1.6686    1.1671 H   0  0  0  0  0  0  0  0  0  0  0  0
    1.3818    0.3512    3.2970 H   0  0  0  0  0  0  0  0  0  0  0  0
    1.6922   -1.3633    3.1661 H   0  0  0  0  0  0  0  0  0  0  0  0
    2.6973   -0.3694    4.1933 H   0  0  0  0  0  0  0  0  0  0  0  0
    2.6115   -2.6561    2.5740 H   0  0  0  0  0  0  0  0  0  0  0  0
    0.8834   -2.4514    2.7308 H   0  0  0  0  0  0  0  0  0  0  0  0
    1.6694   -2.1069    1.2087 H   0  0  0  0  0  0  0  0  0  0  0  0
    0.1642   -0.4676    4.9108 H   0  0  0  0  0  0  0  0  0  0  0  0
    0.8494   -2.0749    4.8979 H   0  0  0  0  0  0  0  0  0  0  0  0
    1.4292   -0.8872    6.0408 H   0  0  0  0  0  0  0  0  0  0  0  0
    3.2386    0.8179    6.2745 H   0  0  0  0  0  0  0  0  0  0  0  0
    3.9263   -0.7882    6.2495 H   0  0  0  0  0  0  0  0  0  0  0  0
    4.8497    0.5670    5.6464 H   0  0  0  0  0  0  0  0  0  0  0  0
    5.3717    1.7861    3.2873 H   0  0  0  0  0  0  0  0  0  0  0  0
    6.0654    0.1826    3.2659 H   0  0  0  0  0  0  0  0  0  0  0  0
    5.5151    0.9163    1.7786 H   0  0  0  0  0  0  0  0  0  0  0  0
  1  2  1  0  0  0  0
  2  3  1  0  0  0  0
  2  4  1  0  0  0  0
  2 13  1  0  0  0  0
  2 15  1  0  0  0  0
  2 17  1  0  0  0  0
  2 19  1  0  0  0  0
  2 21  1  0  0  0  0
  2 23  1  0  0  0  0
  3  4  2  0  0  0  0
  3 25  1  0  0  0  0
  4  5  1  0  0  0  0
  5  6  1  0  0  0  0
  5 14  2  0  0  0  0
  6  7  2  0  0  0  0
  6 26  1  0  0  0  0
  7  8  1  0  0  0  0
  7 27  1  0  0  0  0
  8  9  2  0  0  0  0
  8 28  1  0  0  0  0
  9 10  1  0  0  0  0
  9 14  1  0  0  0  0
 10 11  2  0  0  0  0
 10 29  1  0  0  0  0
 11 12  1  0  0  0  0
 11 30  1  0  0  0  0
 12 13  2  0  0  0  0
 12 31  1  0  0  0  0
 13 14  1  0  0  0  0
 15 16  1  0  0  0  0
 15 17  1  0  0  0  0
 15 23  2  0  0  0  0
 16 32  1  0  0  0  0
 16 33  1  0  0  0  0
 16 34  1  0  0  0  0
 17 18  1  0  0  0  0
 17 19  1  0  0  0  0
 18 35  1  0  0  0  0
 18 36  1  0  0  0  0
 18 37  1  0  0  0  0
 19 20  1  0  0  0  0
 19 21  2  0  0  0  0
 20 38  1  0  0  0  0
 20 39  1  0  0  0  0
 20 40  1  0  0  0  0
 21 22  1  0  0  0  0
 21 23  1  0  0  0  0
 22 41  1  0  0  0  0
 22 42  1  0  0  0  0
 22 43  1  0  0  0  0
 23 24  1  0  0  0  0
 24 44  1  0  0  0  0
 24 45  1  0  0  0  0
 24 46  1  0  0  0  0
M  END
$$$$
