
     RDKit          3D

 46 54  0  0  0  0  0  0  0  0999 V2000
   -0.1583    1.6317    2.6069 Cl  0  0  0  0  0  0  0  0  0  0  0  0
   -0.1569    0.7777    0.6072 Ir  0  0  0  0  0  9  0  0  0  0  0  0
    1.0930    2.3188    0.3517 C   0  0  0  0  0  0  0  0  0  0  0  0
    1.3074    1.3105   -0.3684 C   0  0  0  0  0  0  0  0  0  0  0  0
    1.9398    0.3843   -1.3864 C   0  0  0  0  0  0  0  0  0  0  0  0
    2.6218    0.3139   -2.5690 C   0  0  0  0  0  0  0  0  0  0  0  0
    3.3983   -0.7878   -2.7305 C   0  0  0  0  0  0  0  0  0  0  0  0
    3.5202   -1.7829   -1.7898 C   0  0  0  0  0  0  0  0  0  0  0  0
    2.7942   -1.6380   -0.6442 C   0  0  0  0  0  0  0  0  0  0  0  0
    3.1862   -2.5685    0.3541 C   0  0  0  0  0  0  0  0  0  0  0  0
    2.7002   -2.4370    1.6666 C   0  0  0  0  0  0  0  0  0  0  0  0
    1.8158   -1.3650    1.9110 C   0  0  0  0  0  0  0  0  0  0  0  0
    1.3555   -0.3984    1.0015 C   0  0  0  0  0  0  0  0  0  0  0  0
    1.8953   -0.5478   -0.3119 C   0  0  0  0  0  0  0  0  0  0  0  0
   -1.7306    1.0420    1.2946 C   0  0  0  0  0  0  0  0  0  0  0  0
   -3.1427    0.9040    1.1594 C   0  0  0  0  0  0  0  0  0  0  0  0
   -1.1828   -0.2211    1.1774 C   0  0  0  0  0  0  0  0  0  0  0  0
   -1.5452   -1.2906    2.0819 C   0  0  0  0  0  0  0  0  0  0  0  0
   -1.0233   -0.3326   -0.1614 C   0  0  0  0  0  0  0  0  0  0  0  0
   -1.0397   -1.6023   -0.8151 C   0  0  0  0  0  0  0  0  0  0  0  0
   -1.1171    0.9151   -0.7643 C   0  0  0  0  0  0  0  0  0  0  0  0
   -2.0609    1.0147   -1.7403 C   0  0  0  0  0  0  0  0  0  0  0  0
   -1.2976    1.8373    0.2609 C   0  0  0  0  0  0  0  0  0  0  0  0
   -1.7413    3.1609    0.0437 C   0  0  0  0  0  0  0  0  0  0  0  0
    1.6317    3.3293    0.4274 H   0  0  0  0  0  0  0  0  0  0  0  0
    2.3825    1.1822   -3.1383 H   0  0  0  0  0  0  0  0  0  0  0  0
    3.9045   -0.7931   -3.6732 H   0  0  0  0  0  0  0  0  0  0  0  0
    4.1601   -2.6240   -1.9680 H   0  0  0  0  0  0  0  0  0  0  0  0
    3.8269   -3.4073    0.2839 H   0  0  0  0  0  0  0  0  0  0  0  0
    2.8232   -2.9583    2.5812 H   0  0  0  0  0  0  0  0  0  0  0  0
    1.3809   -1.1562    2.8704 H   0  0  0  0  0  0  0  0  0  0  0  0
   -3.4976    0.6880    2.2163 H   0  0  0  0  0  0  0  0  0  0  0  0
   -3.6169    0.0828    0.5862 H   0  0  0  0  0  0  0  0  0  0  0  0
   -3.7424    1.7946    0.8786 H   0  0  0  0  0  0  0  0  0  0  0  0
   -1.0498   -1.1026    3.0811 H   0  0  0  0  0  0  0  0  0  0  0  0
   -2.6294   -1.1714    2.3108 H   0  0  0  0  0  0  0  0  0  0  0  0
   -1.2504   -2.3173    1.8260 H   0  0  0  0  0  0  0  0  0  0  0  0
   -0.8107   -2.4528   -0.1535 H   0  0  0  0  0  0  0  0  0  0  0  0
   -2.0582   -1.7498   -1.2254 H   0  0  0  0  0  0  0  0  0  0  0  0
   -0.3384   -1.7046   -1.6945 H   0  0  0  0  0  0  0  0  0  0  0  0
   -1.8967    1.8767   -2.4598 H   0  0  0  0  0  0  0  0  0  0  0  0
   -3.1689    1.1029   -1.5275 H   0  0  0  0  0  0  0  0  0  0  0  0
   -2.0190    0.1282   -2.4086 H   0  0  0  0  0  0  0  0  0  0  0  0
   -0.8909    3.8968    0.0027 H   0  0  0  0  0  0  0  0  0  0  0  0
   -2.3732    3.5248    0.8867 H   0  0  0  0  0  0  0  0  0  0  0  0
   -2.1988    3.1923   -0.9384 H   0  0  0  0  0  0  0  0  0  0  0  0
  1  2  1  0
  2  3  1  0
  3  4  2  0
  4  5  1  0
  5  6  2  0
  6  7  1  0
  7  8  2  0
  8  9  1  0
  9 10  2  0
 10 11  1  0
 11 12  2  0
 12 13  1  0
 13 14  2  0
  2 15  1  0
 15 16  1  0
 15 17  1  0
 17 18  1  0
 17 19  1  0
 19 20  1  0
 19 21  1  0
 21 22  1  0
 21 23  1  0
 23 24  1  0
  4  2  1  0
 14  5  1  0
 23 15  1  0
 13  2  1  0
 17  2  1  0
 19  2  1  0
 21  2  1  0
 23  2  1  0
 14  9  1  0
  3 25  1  0
  6 26  1  0
  7 27  1  0
  8 28  1  0
 10 29  1  0
 11 30  1  0
 12 31  1  0
 16 32  1  0
 16 33  1  0
 16 34  1  0
 18 35  1  0
 18 36  1  0
 18 37  1  0
 20 38  1  0
 20 39  1  0
 20 40  1  0
 22 41  1  0
 22 42  1  0
 22 43  1  0
 24 44  1  0
 24 45  1  0
 24 46  1  0
M  END
