
 OpenBabel09252514553D

 80 84  0  0  0  0  0  0  0  0999 V2000
    1.0331   -0.0101    0.0938 Cl  0  0  0  0  0  0  0  0  0  0  0  0
    3.5131   -0.0101    0.0938 Ru  0  0  0  0  0  0  0  0  0  0  0  0
    3.9559   -0.7122    1.0937 C   0  0  0  0  0  0  0  0  0  0  0  0
    4.4825   -0.0415    2.2825 C   0  0  0  0  0  0  0  0  0  0  0  0
    4.9678   -0.7584    3.3782 C   0  0  0  0  0  0  0  0  0  0  0  0
    5.4563   -0.0869    4.4636 C   0  0  0  0  0  0  0  0  0  0  0  0
    5.4658    1.3017    4.4976 C   0  0  0  0  0  0  0  0  0  0  0  0
    4.9927    2.0350    3.4318 C   0  0  0  0  0  0  0  0  0  0  0  0
    4.4952    1.3711    2.3111 C   0  0  0  0  0  0  0  0  0  0  0  0
    3.9779    2.0953    1.1434 C   0  0  0  0  0  0  0  0  0  0  0  0
    2.7502    2.8189    1.6720 C   0  0  0  0  0  0  0  0  0  0  0  0
    3.5131    1.3851    0.0938 N   0  0  0  0  0  0  0  0  0  0  0  0
    2.6787    2.1529   -0.8417 C   0  0  0  0  0  0  0  0  0  0  0  0
    2.0768    1.6975    0.1169 C   0  0  0  0  0  0  0  0  0  0  0  0
    4.7531   -0.0101   -2.0539 Cl  0  0  0  0  0  0  0  0  0  0  0  0
    4.6231   -0.0101    2.0164 C   0  0  0  0  0  3  0  0  0  0  0  0
    5.9273    0.8161    1.8974 N   0  0  0  0  0  0  0  0  0  0  0  0
    6.2223    1.1993    3.3720 C   0  0  0  0  0  0  0  0  0  0  0  0
    4.8305    1.4803    3.9763 C   0  0  0  0  0  0  0  0  0  0  0  0
    3.8140    0.7113    3.1140 N   0  0  0  0  0  0  0  0  0  0  0  0
    2.3563    0.6718    3.3000 C   0  0  0  0  0  0  0  0  0  0  0  0
    1.6135    1.8342    3.2460 C   0  0  0  0  0  0  0  0  0  0  0  0
    2.3110    3.1607    2.9924 C   0  0  0  0  0  0  0  0  0  0  0  0
    0.3006    1.8064    3.4127 C   0  0  0  0  0  0  0  0  0  0  0  0
   -0.3466    0.6737    3.6295 C   0  0  0  0  0  0  0  0  0  0  0  0
   -1.8560    0.6933    3.8077 C   0  0  0  0  0  0  0  0  0  0  0  0
    0.3331   -0.5272    3.6960 C   0  0  0  0  0  0  0  0  0  0  0  0
    1.7106   -0.5341    3.5318 C   0  0  0  0  0  0  0  0  0  0  0  0
    2.4950   -1.8339    3.6044 C   0  0  0  0  0  0  0  0  0  0  0  0
    6.6943    1.1532    0.6895 C   0  0  0  0  0  0  0  0  0  0  0  0
    8.0217    0.7863    0.5933 C   0  0  0  0  0  0  0  0  0  0  0  0
    8.6645   -0.0104    1.7168 C   0  0  0  0  0  0  0  0  0  0  0  0
    8.7409    1.1206   -0.4666 C   0  0  0  0  0  0  0  0  0  0  0  0
    8.2196    1.8078   -1.4691 C   0  0  0  0  0  0  0  0  0  0  0  0
    9.0851    2.1613   -2.6677 C   0  0  0  0  0  0  0  0  0  0  0  0
    6.8977    2.2081   -1.4398 C   0  0  0  0  0  0  0  0  0  0  0  0
    6.1165    1.8801   -0.3414 C   0  0  0  0  0  0  0  0  0  0  0  0
    4.6597    2.3077   -0.2688 C   0  0  0  0  0  0  0  0  0  0  0  0
    3.9353   -1.7810    1.0476 H   0  0  0  0  0  0  0  0  0  0  0  0
    4.9574   -1.8283    3.3680 H   0  0  0  0  0  0  0  0  0  0  0  0
    5.8363   -0.6381    5.2983 H   0  0  0  0  0  0  0  0  0  0  0  0
    5.8449    1.8073    5.3610 H   0  0  0  0  0  0  0  0  0  0  0  0
    5.0069    3.1044    3.4636 H   0  0  0  0  0  0  0  0  0  0  0  0
    4.7719    2.7130    0.7788 H   0  0  0  0  0  0  0  0  0  0  0  0
    3.0320    3.4489    2.4897 H   0  0  0  0  0  0  0  0  0  0  0  0
    2.3245    3.4154    0.8924 H   0  0  0  0  0  0  0  0  0  0  0  0
    2.0298    2.1017    2.0061 H   0  0  0  0  0  0  0  0  0  0  0  0
    4.0663    1.6718   -0.7138 H   0  0  0  0  0  0  0  0  0  0  0  0
    1.9063    1.5228   -1.2304 H   0  0  0  0  0  0  0  0  0  0  0  0
    2.2381    2.9821   -0.3286 H   0  0  0  0  0  0  0  0  0  0  0  0
    3.2845    2.5128   -1.6470 H   0  0  0  0  0  0  0  0  0  0  0  0
    1.9414    2.7573    0.0596 H   0  0  0  0  0  0  0  0  0  0  0  0
    1.5970    1.2310   -0.7180 H   0  0  0  0  0  0  0  0  0  0  0  0
    1.6468    1.3315    1.0257 H   0  0  0  0  0  0  0  0  0  0  0  0
    6.8812    2.0383    3.4533 H   0  0  0  0  0  0  0  0  0  0  0  0
    6.7026    0.3923    3.8849 H   0  0  0  0  0  0  0  0  0  0  0  0
    4.6168    2.5288    3.9823 H   0  0  0  0  0  0  0  0  0  0  0  0
    4.7911    1.1362    4.9887 H   0  0  0  0  0  0  0  0  0  0  0  0
    1.9238    3.6019    2.0978 H   0  0  0  0  0  0  0  0  0  0  0  0
    2.1376    3.8185    3.8184 H   0  0  0  0  0  0  0  0  0  0  0  0
    3.3624    2.9956    2.8825 H   0  0  0  0  0  0  0  0  0  0  0  0
   -0.2504    2.7227    3.3710 H   0  0  0  0  0  0  0  0  0  0  0  0
   -2.1080    1.3045    4.6490 H   0  0  0  0  0  0  0  0  0  0  0  0
   -2.3140    1.0926    2.9269 H   0  0  0  0  0  0  0  0  0  0  0  0
   -2.2087   -0.3034    3.9725 H   0  0  0  0  0  0  0  0  0  0  0  0
   -0.1962   -1.4404    3.8718 H   0  0  0  0  0  0  0  0  0  0  0  0
    2.3543   -2.2823    4.5656 H   0  0  0  0  0  0  0  0  0  0  0  0
    2.1481   -2.5028    2.8446 H   0  0  0  0  0  0  0  0  0  0  0  0
    3.5349   -1.6318    3.4539 H   0  0  0  0  0  0  0  0  0  0  0  0
    9.0178   -0.9452    1.3344 H   0  0  0  0  0  0  0  0  0  0  0  0
    9.4862    0.5428    2.1215 H   0  0  0  0  0  0  0  0  0  0  0  0
    7.9422   -0.1896    2.4856 H   0  0  0  0  0  0  0  0  0  0  0  0
    9.7690    0.8276   -0.5134 H   0  0  0  0  0  0  0  0  0  0  0  0
    9.9146    2.7555   -2.3457 H   0  0  0  0  0  0  0  0  0  0  0  0
    9.4455    1.2634   -3.1246 H   0  0  0  0  0  0  0  0  0  0  0  0
    8.5043    2.7139   -3.3764 H   0  0  0  0  0  0  0  0  0  0  0  0
    6.4818    2.7641   -2.2539 H   0  0  0  0  0  0  0  0  0  0  0  0
    4.5987    3.3751   -0.3107 H   0  0  0  0  0  0  0  0  0  0  0  0
    4.1230    1.8871   -1.0934 H   0  0  0  0  0  0  0  0  0  0  0  0
    4.2318    1.9618    0.6489 H   0  0  0  0  0  0  0  0  0  0  0  0
  1  2  1  0  0  0  0
  2  3  2  0  0  0  0
  2 12  1  0  0  0  0
  2 15  1  0  0  0  0
  2 16  1  0  0  0  0
  3  4  1  0  0  0  0
  3 39  1  0  0  0  0
  4  5  1  0  0  0  0
  4  9  2  0  0  0  0
  5  6  2  0  0  0  0
  5 40  1  0  0  0  0
  6  7  1  0  0  0  0
  6 41  1  0  0  0  0
  7  8  2  0  0  0  0
  7 42  1  0  0  0  0
  8  9  1  0  0  0  0
  8 43  1  0  0  0  0
  9 10  1  0  0  0  0
 10 11  1  0  0  0  0
 10 12  1  0  0  0  0
 10 44  1  0  0  0  0
 11 45  1  0  0  0  0
 11 46  1  0  0  0  0
 11 47  1  0  0  0  0
 12 13  1  0  0  0  0
 12 14  1  0  0  0  0
 12 48  1  0  0  0  0
 13 49  1  0  0  0  0
 13 50  1  0  0  0  0
 13 51  1  0  0  0  0
 14 52  1  0  0  0  0
 14 53  1  0  0  0  0
 14 54  1  0  0  0  0
 16 17  1  0  0  0  0
 16 20  1  0  0  0  0
 17 18  1  0  0  0  0
 17 30  1  0  0  0  0
 18 19  1  0  0  0  0
 18 55  1  0  0  0  0
 18 56  1  0  0  0  0
 19 20  1  0  0  0  0
 19 57  1  0  0  0  0
 19 58  1  0  0  0  0
 20 21  1  0  0  0  0
 21 22  1  0  0  0  0
 21 28  2  0  0  0  0
 22 23  1  0  0  0  0
 22 24  2  0  0  0  0
 23 59  1  0  0  0  0
 23 60  1  0  0  0  0
 23 61  1  0  0  0  0
 24 25  1  0  0  0  0
 24 62  1  0  0  0  0
 25 26  1  0  0  0  0
 25 27  2  0  0  0  0
 26 63  1  0  0  0  0
 26 64  1  0  0  0  0
 26 65  1  0  0  0  0
 27 28  1  0  0  0  0
 27 66  1  0  0  0  0
 28 29  1  0  0  0  0
 29 67  1  0  0  0  0
 29 68  1  0  0  0  0
 29 69  1  0  0  0  0
 30 31  1  0  0  0  0
 30 37  2  0  0  0  0
 31 32  1  0  0  0  0
 31 33  2  0  0  0  0
 32 70  1  0  0  0  0
 32 71  1  0  0  0  0
 32 72  1  0  0  0  0
 33 34  1  0  0  0  0
 33 73  1  0  0  0  0
 34 35  1  0  0  0  0
 34 36  2  0  0  0  0
 35 74  1  0  0  0  0
 35 75  1  0  0  0  0
 35 76  1  0  0  0  0
 36 37  1  0  0  0  0
 36 77  1  0  0  0  0
 37 38  1  0  0  0  0
 38 78  1  0  0  0  0
 38 79  1  0  0  0  0
 38 80  1  0  0  0  0
M  END
$$$$
