
  --CCDC--092525    3D                              

 44 43  0  0  0  0  0  0  0  0999 V2000
   -1.2097    0.4318    0.3987 H      0
   -0.1719    0.7488    0.4773 C      0
    0.3064    0.4515   -0.4543 H      0
    0.2446    0.1597    1.2947 H      0
   -0.1504    2.5522    0.7549 P      0
   -1.5113    3.7456    0.6931 C      0
   -1.6489    4.1231   -0.3169 H      0
   -1.3562    4.5772    1.3712 H      0
   -2.4412    3.2596    0.9809 H      0
   -0.6933    2.0449    2.4169 C      0
   -1.6667    1.5621    2.3604 H      0
   -0.7919    2.8921    3.0931 H      0
    0.0033    1.3350    2.8578 H      0
    1.3827    3.1550    0.5156 O      0
    1.6790    1.8742    0.7598 N      0
    2.3722    1.3162    1.6765 N      3
    2.9581    0.6857    2.4288 N      5
    1.0198    3.1071   -0.8703 C      0
    1.0391    2.0782   -1.2117 H      0
    1.6783    3.5962   -1.5756 H      0
    0.0449    3.4940   -1.1242 H      0
    2.7688    3.0285    0.1715 C      0
    2.9200    2.0643   -0.3124 H      0
    3.4512    3.0853    1.0194 H      0
    3.1751    3.6742   -0.5932 H      0
    1.3683    3.5210    1.8946 C      0
    0.4824    4.0755    2.1692 H      0
    2.2418    4.0470    2.2403 H      0
    1.3730    2.6937    2.5881 H      0
    1.5340    4.8374    0.3394 P      0
    0.3379    5.7072   -0.7238 C      0
    0.2477    5.2982   -1.7278 H      0
    0.6906    6.7281   -0.8540 H      0
   -0.6455    5.8044   -0.2803 H      0
    3.1909    5.5136    0.7359 C      0
    3.8421    5.5771   -0.1329 H      0
    3.7290    4.9727    1.5092 H      0
    3.0740    6.5341    1.0947 H      0
    0.9801    6.0126    1.6207 C      0
   -0.0755    5.9165    1.8530 H      0
    1.1318    7.0291    1.2638 H      0
    1.5465    5.9197    2.5460 H      0
   -0.7958    2.1809   -0.4326 H      0
    2.1612    5.1930   -0.8617 H      0
  1  2  1
  2  3  1
  2  4  1
  2  5  1
  5  6  1
  6  7  1
  6  8  1
  6  9  1
  5 10  1
 10 11  1
 10 12  1
 10 13  1
  5 14  1
 14 15  1
 15 16  2
 16 17  2
 14 18  1
 18 19  1
 18 20  1
 18 21  1
 14 22  1
 22 23  1
 22 24  1
 22 25  1
 14 26  1
 26 27  1
 26 28  1
 26 29  1
 14 30  1
 30 31  1
 31 32  1
 31 33  1
 31 34  1
 30 35  1
 35 36  1
 35 37  1
 35 38  1
 30 39  1
 39 40  1
 39 41  1
 39 42  1
  5 43  1
 30 44  1
M  CHG  2  16   1  17  -1
M  END
$$$$
