
     RDKit          3D

 28 28  0  0  0  0  0  0  0  0999 V2000
   -2.8035   -1.7764    0.4030 C   0  0  0  0  0  0  0  0  0  0  0  0
   -2.5474   -0.4260    1.0621 C   0  0  0  0  0  0  0  0  0  0  0  0
   -1.9775    0.6024    0.0849 C   0  0  0  0  0  0  0  0  0  0  0  0
   -0.5180    0.5849   -0.1324 C   0  0  0  0  0  0  0  0  0  0  0  0
    0.3722   -0.2633    0.4119 C   0  0  0  0  0  0  0  0  0  0  0  0
    1.8154   -0.2137    0.1282 C   0  0  0  0  0  0  0  0  0  0  0  0
    2.5119   -1.4190   -0.0458 C   0  0  0  0  0  0  0  0  0  0  0  0
    3.8874   -1.4138   -0.2895 C   0  0  0  0  0  0  0  0  0  0  0  0
    4.5682   -0.2045   -0.3481 C   0  0  0  0  0  0  0  0  0  0  0  0
    5.8872   -0.2000   -0.5797 F   0  0  0  0  0  0  0  0  0  0  0  0
    3.9009    0.9998   -0.1633 C   0  0  0  0  0  0  0  0  0  0  0  0
    2.5252    0.9959    0.0803 C   0  0  0  0  0  0  0  0  0  0  0  0
   -2.7845    1.5052   -0.5384 C   0  0  0  0  0  0  0  0  0  0  0  0
   -2.2830    2.4933   -1.4377 C   0  0  0  0  0  0  0  0  0  0  0  0
   -1.8605    3.2947   -2.1633 N   0  0  0  0  0  0  0  0  0  0  0  0
   -4.1979    1.5097   -0.3398 C   0  0  0  0  0  0  0  0  0  0  0  0
   -5.3460    1.5004   -0.1704 N   0  0  0  0  0  0  0  0  0  0  0  0
   -3.2160   -2.4783    1.1350 H   0  0  0  0  0  0  0  0  0  0  0  0
   -1.8849   -2.2143    0.0006 H   0  0  0  0  0  0  0  0  0  0  0  0
   -3.5233   -1.6854   -0.4172 H   0  0  0  0  0  0  0  0  0  0  0  0
   -3.4877   -0.0747    1.5033 H   0  0  0  0  0  0  0  0  0  0  0  0
   -1.8859   -0.5472    1.9279 H   0  0  0  0  0  0  0  0  0  0  0  0
   -0.1201    1.3305   -0.8223 H   0  0  0  0  0  0  0  0  0  0  0  0
    0.0755   -1.0636    1.0830 H   0  0  0  0  0  0  0  0  0  0  0  0
    1.9885   -2.3717   -0.0025 H   0  0  0  0  0  0  0  0  0  0  0  0
    4.4295   -2.3430   -0.4326 H   0  0  0  0  0  0  0  0  0  0  0  0
    4.4542    1.9327   -0.2049 H   0  0  0  0  0  0  0  0  0  0  0  0
    2.0201    1.9455    0.2412 H   0  0  0  0  0  0  0  0  0  0  0  0
  1  2  1  0
  2  3  1  0
  3  4  1  0
  4  5  2  3
  5  6  1  0
  6  7  2  0
  7  8  1  0
  8  9  2  0
  9 10  1  0
  9 11  1  0
 11 12  2  0
  3 13  2  3
 13 14  1  0
 14 15  3  0
 13 16  1  0
 16 17  3  0
 12  6  1  0
  1 18  1  0
  1 19  1  0
  1 20  1  0
  2 21  1  0
  2 22  1  0
  4 23  1  0
  5 24  1  0
  7 25  1  0
  8 26  1  0
 11 27  1  0
 12 28  1  0
M  END
