
     RDKit          3D

 23 24  0  0  0  0  0  0  0  0999 V2000
   -1.6211    1.8498   -2.0779 O   0  0  0  0  0  0  0  0  0  0  0  0
   -2.0234    1.0394   -1.2827 C   0  0  0  0  0  0  0  0  0  0  0  0
   -2.0971    0.8873    0.2458 C   0  0  0  0  0  0  0  0  0  0  0  0
   -2.2338   -0.6116   -0.0555 C   0  0  0  0  0  0  0  0  0  0  0  0
   -2.4994   -0.2224   -1.4713 N   0  0  0  0  0  0  0  0  0  0  0  0
   -0.7490   -1.6560   -0.0852 S   0  0  0  0  0  0  0  0  0  0  0  0
   -0.5785   -2.1839   -1.4317 O   0  0  0  0  0  0  0  0  0  0  0  0
   -0.8358   -2.5851    1.0296 O   0  0  0  0  0  0  0  0  0  0  0  0
    0.6914   -0.6499    0.2272 C   0  0  0  0  0  0  0  0  0  0  0  0
    1.2125   -0.5699    1.5222 C   0  0  0  0  0  0  0  0  0  0  0  0
    2.3372    0.2201    1.7589 C   0  0  0  0  0  0  0  0  0  0  0  0
    2.9381    0.9144    0.7075 C   0  0  0  0  0  0  0  0  0  0  0  0
    2.4242    0.8145   -0.5865 C   0  0  0  0  0  0  0  0  0  0  0  0
    1.3020    0.0248   -0.8340 C   0  0  0  0  0  0  0  0  0  0  0  0
   -2.9836    1.3566    0.6835 H   0  0  0  0  0  0  0  0  0  0  0  0
   -1.2093    1.2150    0.7864 H   0  0  0  0  0  0  0  0  0  0  0  0
   -3.0899   -1.1173    0.4002 H   0  0  0  0  0  0  0  0  0  0  0  0
   -2.1383   -0.7180   -2.2851 H   0  0  0  0  0  0  0  0  0  0  0  0
    0.7616   -1.1189    2.3459 H   0  0  0  0  0  0  0  0  0  0  0  0
    2.7528    0.2897    2.7616 H   0  0  0  0  0  0  0  0  0  0  0  0
    3.8171    1.5272    0.8945 H   0  0  0  0  0  0  0  0  0  0  0  0
    2.9032    1.3488   -1.4041 H   0  0  0  0  0  0  0  0  0  0  0  0
    0.9192   -0.0546   -1.8495 H   0  0  0  0  0  0  0  0  0  0  0  0
  1  2  2  0
  2  3  1  0
  3  4  1  0
  4  5  1  0
  4  6  1  0
  6  7  2  0
  6  8  2  0
  6  9  1  0
  9 10  2  0
 10 11  1  0
 11 12  2  0
 12 13  1  0
 13 14  2  0
  5  2  1  0
 14  9  1  0
  3 15  1  0
  3 16  1  0
  4 17  1  0
  5 18  1  0
 10 19  1  0
 11 20  1  0
 12 21  1  0
 13 22  1  0
 14 23  1  0
M  END
