
  --CCDC--092525    3D                              

 73 75  0  0  0  0  0  0  0  0999 V2000
   -0.7570    0.6252   -0.2004 H      0
   -0.0175    1.4175   -0.1503 C      0
    0.1389    2.2865   -1.2066 C      0
   -0.4775    2.1768   -2.0927 H      0
    1.0774    3.3027   -1.1406 C      0
    1.1792    3.9879   -1.9751 H      0
    1.8790    3.4673   -0.0142 C      0
    2.8938    4.5922    0.0126 C      0
    3.3936    5.4433   -0.6856 C      0
    3.4246    6.0186   -2.0697 C      0
    2.7598    5.3932   -3.1203 C      0
    2.2232    4.4672   -2.9444 H      0
    2.7850    5.9374   -4.3936 C      0
    2.2595    5.4420   -5.2033 H      0
    3.4764    7.1039   -4.6369 C      0
    3.4940    7.5278   -5.6355 H      0
    4.1468    7.7296   -3.6088 C      0
    4.6943    8.6467   -3.7996 H      0
    4.1237    7.1927   -2.3324 C      0
    4.6542    7.6934   -1.5292 H      0
    4.0344    5.7001    1.1084 Co     3
    5.0863    7.2658    1.5350 N      0
    5.7406    8.1845    1.7389 C      0
    6.5608    9.3661    1.9668 C      0
    6.5531   10.0152    1.0937 H      0
    7.5920    9.0860    2.1719 H      0
    6.1891    9.9358    2.8159 H      0
    3.8932    4.4585    3.0791 P      0
    2.1629    4.7185    3.5542 C      0
    1.9337    4.0877    4.4105 H      0
    1.4966    4.4107    2.7543 H      0
    1.9055    5.7241    3.8434 H      0
    4.9067    5.0690    4.4514 C      0
    5.1707    6.1162    4.3407 H      0
    5.8342    4.5063    4.5203 H      0
    4.3813    4.9467    5.3962 H      0
    4.8120    2.9621    2.6267 C      0
    4.4685    2.5725    1.6713 H      0
    4.6500    2.1898    3.3757 H      0
    5.8803    3.1113    2.5565 H      0
    6.2352    5.0533    0.7468 P      0
    6.5069    6.1229   -0.6912 C      0
    6.1893    7.1486   -0.5316 H      0
    5.9639    5.7399   -1.5526 H      0
    7.5635    6.1427   -0.9498 H      0
    7.0460    3.5332    0.1957 C      0
    6.6280    3.1941   -0.7498 H      0
    6.9160    2.7390    0.9279 H      0
    8.1130    3.6940    0.0562 H      0
    7.0605    5.4332    2.3205 C      0
    7.1882    4.5413    2.9275 H      0
    6.5324    6.1583    2.9300 H      0
    8.0569    5.8255    2.1281 H      0
    2.5231    7.3047    1.8141 P      0
    3.0879    7.7676    3.4770 C      0
    3.4047    6.9122    4.0605 H      0
    3.9004    8.4842    3.4751 H      0
    2.2654    8.2300    4.0189 H      0
    1.1176    6.4861    1.0168 C      0
    0.1942    7.0019    1.2714 H      0
    1.0180    5.4532    1.3331 H      0
    1.2036    6.5049   -0.0661 H      0
    2.6189    8.8322    0.8480 C      0
    2.5650    8.6167   -0.2171 H      0
    3.5448    9.3681    1.0377 H      0
    1.7930    9.4945    1.0990 H      0
    1.7184    2.5674    1.0355 C      0
    2.3499    2.6385    1.9101 H      0
    0.7720    1.5582    0.9689 C      0
    0.6558    0.8717    1.8010 H      0
    3.1842    3.2610    3.2137 H      0
    5.3215    4.0045    0.6308 H      0
    1.4296    7.1233    2.6664 H      0
  1  2  1
  2  3  4
  3  4  1
  3  5  4
  5  6  1
  5  7  4
  7  8  1
  8  9  3
  9 10  1
 10 11  4
 11 12  1
 11 13  4
 13 14  1
 13 15  4
 15 16  1
 15 17  4
 17 18  1
 17 19  4
 10 19  4
 19 20  1
  9 21  1
  8 21  1
 21 22  1
 22 23  3
 23 24  1
 24 25  1
 24 26  1
 24 27  1
 21 28  1
 28 29  1
 29 30  1
 29 31  1
 29 32  1
 28 33  1
 33 34  1
 33 35  1
 33 36  1
 28 37  1
 37 38  1
 37 39  1
 37 40  1
 21 41  1
 41 42  1
 42 43  1
 42 44  1
 42 45  1
 41 46  1
 46 47  1
 46 48  1
 46 49  1
 41 50  1
 50 51  1
 50 52  1
 50 53  1
 21 54  1
 54 55  1
 55 56  1
 55 57  1
 55 58  1
 54 59  1
 59 60  1
 59 61  1
 59 62  1
 54 63  1
 63 64  1
 63 65  1
 63 66  1
  7 67  4
 67 68  1
 67 69  4
  2 69  4
 69 70  1
 28 71  1
 41 72  1
 54 73  1
M  CHG  1  21   1
M  END
$$$$
