
     RDKit          3D

 53 57  0  0  0  0  0  0  0  0999 V2000
   -0.0215    4.4525   -0.4337 I   0  0  0  0  0  0  0  0  0  0  0  0
    0.0337    2.8748   -0.6436 Cu  0  0  0  0  0  3  0  0  0  0  0  0
    0.9239    1.5154   -2.0854 S   0  0  0  0  0  3  0  0  0  0  0  0
    1.3859    0.1862   -1.0654 P   0  0  0  0  0  0  0  0  0  0  0  0
   -0.1498   -0.6847   -0.7175 C   0  0  0  0  0  0  0  0  0  0  0  0
   -1.2945    0.2946    0.2612 P   0  0  0  0  0  0  0  0  0  0  0  0
   -0.3629    1.4871    1.0877 S   0  0  0  0  0  3  0  0  0  0  0  0
   -1.9666   -0.7415    1.5239 C   0  0  0  0  0  0  0  0  0  0  0  0
   -3.1913   -1.3927    1.3439 C   0  0  0  0  0  0  0  0  0  0  0  0
   -3.7322   -2.2062    2.3195 C   0  0  0  0  0  0  0  0  0  0  0  0
   -3.0736   -2.4065    3.5206 C   0  0  0  0  0  0  0  0  0  0  0  0
   -1.8550   -1.7805    3.7436 C   0  0  0  0  0  0  0  0  0  0  0  0
   -1.3517   -0.9759    2.7403 C   0  0  0  0  0  0  0  0  0  0  0  0
   -2.6353    0.9811   -0.7296 C   0  0  0  0  0  0  0  0  0  0  0  0
   -3.3240    2.0241   -0.1013 C   0  0  0  0  0  0  0  0  0  0  0  0
   -4.3668    2.6088   -0.7883 C   0  0  0  0  0  0  0  0  0  0  0  0
   -4.7427    2.1986   -2.0588 C   0  0  0  0  0  0  0  0  0  0  0  0
   -4.0411    1.1739   -2.6367 C   0  0  0  0  0  0  0  0  0  0  0  0
   -2.9917    0.5578   -1.9907 C   0  0  0  0  0  0  0  0  0  0  0  0
    2.4359   -0.8988   -1.9770 C   0  0  0  0  0  0  0  0  0  0  0  0
    3.1768   -1.8507   -1.2742 C   0  0  0  0  0  0  0  0  0  0  0  0
    4.0156   -2.7282   -1.9247 C   0  0  0  0  0  0  0  0  0  0  0  0
    4.1092   -2.6463   -3.2970 C   0  0  0  0  0  0  0  0  0  0  0  0
    3.3838   -1.7083   -4.0289 C   0  0  0  0  0  0  0  0  0  0  0  0
    2.5475   -0.8376   -3.3495 C   0  0  0  0  0  0  0  0  0  0  0  0
    2.2494    0.7021    0.3964 C   0  0  0  0  0  0  0  0  0  0  0  0
    2.9202    1.9108    0.3481 C   0  0  0  0  0  0  0  0  0  0  0  0
    3.6122    2.3953    1.4157 C   0  0  0  0  0  0  0  0  0  0  0  0
    3.6365    1.6480    2.5730 C   0  0  0  0  0  0  0  0  0  0  0  0
    2.9614    0.4335    2.6186 C   0  0  0  0  0  0  0  0  0  0  0  0
    2.2566   -0.0552    1.5246 C   0  0  0  0  0  0  0  0  0  0  0  0
    0.0807   -1.6607   -0.2359 H   0  0  0  0  0  0  0  0  0  0  0  0
   -0.5866   -0.9439   -1.7004 H   0  0  0  0  0  0  0  0  0  0  0  0
   -3.7462   -1.2695    0.4233 H   0  0  0  0  0  0  0  0  0  0  0  0
   -4.6822   -2.7208    2.1989 H   0  0  0  0  0  0  0  0  0  0  0  0
   -3.4347   -3.0283    4.3297 H   0  0  0  0  0  0  0  0  0  0  0  0
   -1.2563   -1.8708    4.6514 H   0  0  0  0  0  0  0  0  0  0  0  0
   -0.4049   -0.4683    2.8711 H   0  0  0  0  0  0  0  0  0  0  0  0
   -3.1214    2.4245    0.8790 H   0  0  0  0  0  0  0  0  0  0  0  0
   -4.9730    3.4305   -0.3939 H   0  0  0  0  0  0  0  0  0  0  0  0
   -5.5619    2.6571   -2.5999 H   0  0  0  0  0  0  0  0  0  0  0  0
   -4.3142    0.8303   -3.6346 H   0  0  0  0  0  0  0  0  0  0  0  0
   -2.4167   -0.2385   -2.3927 H   0  0  0  0  0  0  0  0  0  0  0  0
    3.1282   -1.9431   -0.2010 H   0  0  0  0  0  0  0  0  0  0  0  0
    4.6160   -3.4879   -1.4394 H   0  0  0  0  0  0  0  0  0  0  0  0
    4.7569   -3.3151   -3.8631 H   0  0  0  0  0  0  0  0  0  0  0  0
    3.4442   -1.6297   -5.1009 H   0  0  0  0  0  0  0  0  0  0  0  0
    1.9491   -0.0795   -3.8400 H   0  0  0  0  0  0  0  0  0  0  0  0
    2.9060    2.5036   -0.5569 H   0  0  0  0  0  0  0  0  0  0  0  0
    4.1349    3.3531    1.3545 H   0  0  0  0  0  0  0  0  0  0  0  0
    4.1908    2.0475    3.4114 H   0  0  0  0  0  0  0  0  0  0  0  0
    3.0039   -0.1271    3.5492 H   0  0  0  0  0  0  0  0  0  0  0  0
    1.7393   -0.9948    1.5727 H   0  0  0  0  0  0  0  0  0  0  0  0
  1  2  1  0
  2  3  1  0
  3  4  2  0
  4  5  1  0
  5  6  1  0
  6  7  2  0
  6  8  1  0
  8  9  2  0
  9 10  1  0
 10 11  2  0
 11 12  1  0
 12 13  2  0
  6 14  1  0
 14 15  2  0
 15 16  1  0
 16 17  2  0
 17 18  1  0
 18 19  2  0
  4 20  1  0
 20 21  2  0
 21 22  1  0
 22 23  2  0
 23 24  1  0
 24 25  2  0
  4 26  1  0
 26 27  2  0
 27 28  1  0
 28 29  2  0
 29 30  1  0
 30 31  2  0
  7  2  1  0
 13  8  1  0
 19 14  1  0
 25 20  1  0
 31 26  1  0
  5 32  1  0
  5 33  1  0
  9 34  1  0
 10 35  1  0
 11 36  1  0
 12 37  1  0
 13 38  1  0
 15 39  1  0
 16 40  1  0
 17 41  1  0
 18 42  1  0
 19 43  1  0
 21 44  1  0
 22 45  1  0
 23 46  1  0
 24 47  1  0
 25 48  1  0
 27 49  1  0
 28 50  1  0
 29 51  1  0
 30 52  1  0
 31 53  1  0
M  RAD  2   3   2   7   2
M  END
