
     RDKit          3D

 26 26  0  0  0  0  0  0  0  0999 V2000
   -3.3701   -0.4164   -1.5713 C   0  0  0  0  0  0  0  0  0  0  0  0
   -2.8472   -0.2596   -0.1487 C   0  0  0  0  0  0  0  0  0  0  0  0
   -3.4429    0.9783    0.5121 C   0  0  0  0  0  0  0  0  0  0  0  0
   -1.4165   -0.1175   -0.2365 O   0  0  0  0  0  0  0  0  0  0  0  0
   -0.7131   -0.4730    0.8661 C   0  0  0  0  0  0  0  0  0  0  0  0
   -1.1771   -0.8979    1.9115 O   0  0  0  0  0  0  0  0  0  0  0  0
    0.7456   -0.2740    0.6403 C   0  0  0  0  0  0  0  0  0  0  0  0
    1.2609    0.2160   -0.5699 C   0  0  0  0  0  0  0  0  0  0  0  0
    2.6405    0.3861   -0.7339 C   0  0  0  0  0  0  0  0  0  0  0  0
    3.5088    0.0644    0.3183 C   0  0  0  0  0  0  0  0  0  0  0  0
    3.0060   -0.4254    1.5306 C   0  0  0  0  0  0  0  0  0  0  0  0
    1.6259   -0.5925    1.6865 C   0  0  0  0  0  0  0  0  0  0  0  0
    4.9570    0.2422    0.1482 N   0  0  0  0  0  0  0  0  0  0  0  0
    5.6898   -0.0539    1.1023 O   0  0  0  0  0  0  0  0  0  0  0  0
    5.3592    0.6779   -0.9399 O   0  0  0  0  0  0  0  0  0  0  0  0
   -2.9213   -1.2955   -2.0465 H   0  0  0  0  0  0  0  0  0  0  0  0
   -3.0981    0.4472   -2.1884 H   0  0  0  0  0  0  0  0  0  0  0  0
   -4.4583   -0.5301   -1.5854 H   0  0  0  0  0  0  0  0  0  0  0  0
   -3.1094   -1.1606    0.4193 H   0  0  0  0  0  0  0  0  0  0  0  0
   -4.5351    0.9212    0.5480 H   0  0  0  0  0  0  0  0  0  0  0  0
   -3.0706    1.0918    1.5354 H   0  0  0  0  0  0  0  0  0  0  0  0
   -3.1555    1.8870   -0.0283 H   0  0  0  0  0  0  0  0  0  0  0  0
    0.5995    0.4702   -1.3959 H   0  0  0  0  0  0  0  0  0  0  0  0
    3.0174    0.7676   -1.6814 H   0  0  0  0  0  0  0  0  0  0  0  0
    3.6667   -0.6799    2.3574 H   0  0  0  0  0  0  0  0  0  0  0  0
    1.2378   -0.9736    2.6308 H   0  0  0  0  0  0  0  0  0  0  0  0
  1  2  1  0
  2  3  1  0
  2  4  1  0
  4  5  1  0
  5  6  2  0
  5  7  1  0
  7  8  2  0
  8  9  1  0
  9 10  2  0
 10 11  1  0
 11 12  2  0
 10 13  1  0
 13 14  1  0
 13 15  2  0
 12  7  1  0
  1 16  1  0
  1 17  1  0
  1 18  1  0
  2 19  1  0
  3 20  1  0
  3 21  1  0
  3 22  1  0
  8 23  1  0
  9 24  1  0
 11 25  1  0
 12 26  1  0
M  CHG  2  13   1  14  -1
M  END
