
 OpenBabel09252517283D

 32 34  0  0  0  0  0  0  0  0999 V2000
    1.0330    0.0943    0.0041 C   0  0  0  0  0  0  0  0  0  0  0  0
    0.5263    1.1254    0.9994 C   0  0  0  0  0  0  0  0  0  0  0  0
    1.0330    2.5029    0.6040 C   0  0  0  0  0  0  0  0  0  0  0  0
    0.1490    3.4968    0.3188 C   0  0  0  0  0  0  0  0  0  0  0  0
   -0.9937    1.1254    0.9994 C   0  0  0  0  0  0  0  0  0  0  0  0
   -1.4837   -0.2067    1.3817 N   0  0  0  0  0  0  0  0  0  0  0  0
   -1.1766   -1.2219    0.6814 N   0  0  0  0  0  0  0  0  0  0  0  0
   -0.4460   -1.0853   -0.3495 N   0  0  0  0  0  2  0  0  0  0  0  0
   -1.5003    2.1565    1.9946 C   0  0  0  0  0  0  0  0  0  0  0  0
   -2.0871    1.9555    3.1626 C   0  0  0  0  0  0  0  0  0  0  0  0
   -2.1646    3.2889    3.8138 C   0  0  0  0  0  0  0  0  0  0  0  0
   -1.6107    4.1388    2.9653 C   0  0  0  0  0  0  0  0  0  0  0  0
   -1.4462    5.6332    3.1894 C   0  0  0  0  0  0  0  0  0  0  0  0
   -1.2176    3.4636    1.8732 Fe  0  0  0  0  0  0  0  0  0  0  0  0
   -2.1685    2.8714    0.1207 C   0  0  0  0  0  0  0  0  0  0  0  0
   -2.7253    2.5245   -0.9057 O   0  0  0  0  0  0  0  0  0  0  0  0
   -2.1345    2.6587    0.1887 C   0  0  0  0  0  0  0  0  0  0  0  0
   -2.6715    2.1873   -0.7978 O   0  0  0  0  0  0  0  0  0  0  0  0
   -2.4511    2.2161    0.7558 C   0  0  0  0  0  0  0  0  0  0  0  0
   -3.1734    1.4855    0.1015 O   0  0  0  0  0  0  0  0  0  0  0  0
    0.6763    0.3381   -0.9748 H   0  0  0  0  0  0  0  0  0  0  0  0
    0.6763   -0.8754    0.2824 H   0  0  0  0  0  0  0  0  0  0  0  0
    2.1030    0.0943    0.0041 H   0  0  0  0  0  0  0  0  0  0  0  0
    0.8830    0.8816    1.9783 H   0  0  0  0  0  0  0  0  0  0  0  0
    2.0850    2.6908    0.5501 H   0  0  0  0  0  0  0  0  0  0  0  0
    0.5056    4.4664    0.0405 H   0  0  0  0  0  0  0  0  0  0  0  0
   -0.9030    3.3088    0.3727 H   0  0  0  0  0  0  0  0  0  0  0  0
   -1.3503    1.3692    0.0205 H   0  0  0  0  0  0  0  0  0  0  0  0
   -1.5166   -2.1462    0.9467 H   0  0  0  0  0  0  0  0  0  0  0  0
   -0.4070    5.8862    3.1584 H   0  0  0  0  0  0  0  0  0  0  0  0
   -1.9666    6.1682    2.4227 H   0  0  0  0  0  0  0  0  0  0  0  0
   -1.8491    5.8971    4.1449 H   0  0  0  0  0  0  0  0  0  0  0  0
  1  2  1  0  0  0  0
  1 21  1  0  0  0  0
  1 22  1  0  0  0  0
  1 23  1  0  0  0  0
  2  3  1  0  0  0  0
  2  5  1  0  0  0  0
  2 24  1  0  0  0  0
  3  4  2  0  0  0  0
  3 25  1  0  0  0  0
  4 26  1  0  0  0  0
  4 27  1  0  0  0  0
  5  6  1  0  0  0  0
  5  9  1  0  0  0  0
  5 28  1  0  0  0  0
  6  7  2  0  0  0  0
  7  8  2  0  0  0  0
  7 29  1  0  0  0  0
  9 10  2  0  0  0  0
  9 14  1  0  0  0  0
 10 11  1  0  0  0  0
 10 14  1  0  0  0  0
 11 12  2  0  0  0  0
 11 14  1  0  0  0  0
 12 13  1  0  0  0  0
 12 14  1  0  0  0  0
 13 30  1  0  0  0  0
 13 31  1  0  0  0  0
 13 32  1  0  0  0  0
 14 15  1  0  0  0  0
 14 17  1  0  0  0  0
 14 19  1  0  0  0  0
 15 16  3  0  0  0  0
 17 18  3  0  0  0  0
 19 20  3  0  0  0  0
M  END
$$$$
