
 OpenBabel09252519223D

 32 35  0  0  0  0  0  0  0  0999 V2000
    0.9321   -0.0112    0.0237 O   0  0  0  0  0  0  0  0  0  0  0  0
    2.1552    0.0287    0.0887 C   0  0  0  0  0  0  0  0  0  0  0  0
    2.7979    1.1906    0.3804 N   0  0  0  0  0  0  0  0  0  0  0  0
    4.1739    1.3454    0.2477 C   0  0  0  0  0  0  0  0  0  0  0  0
    4.7076    2.6305    0.3984 C   0  0  0  0  0  0  0  0  0  0  0  0
    6.0471    2.8576    0.1102 C   0  0  0  0  0  0  0  0  0  0  0  0
    6.8212    1.8152   -0.3856 C   0  0  0  0  0  0  0  0  0  0  0  0
    6.2730    0.5324   -0.5287 C   0  0  0  0  0  0  0  0  0  0  0  0
    4.9605    0.2443   -0.1276 C   0  0  0  0  0  0  0  0  0  0  0  0
    4.3594   -1.1376   -0.1035 C   0  0  0  0  0  0  0  0  0  0  0  0
    3.0052   -1.1964   -0.0674 C   0  0  0  0  0  0  0  0  0  0  0  0
    2.1699   -2.4438   -0.1003 C   0  0  0  0  0  0  0  0  0  0  0  0
    2.9064   -3.7601   -0.2696 C   0  0  0  0  0  0  0  0  0  0  0  0
    4.4008   -3.6826   -0.1678 C   0  0  0  0  0  0  0  0  0  0  0  0
    5.0964   -4.9113   -0.1673 C   0  0  0  0  0  0  0  0  0  0  0  0
    6.4744   -4.9525   -0.0123 C   0  0  0  0  0  0  0  0  0  0  0  0
    7.1616   -3.7680    0.1892 C   0  0  0  0  0  0  0  0  0  0  0  0
    6.4710   -2.5485    0.2033 C   0  0  0  0  0  0  0  0  0  0  0  0
    5.0880   -2.4587   -0.0419 C   0  0  0  0  0  0  0  0  0  0  0  0
    2.2019    1.9935    0.5255 H   0  0  0  0  0  0  0  0  0  0  0  0
    4.0826    3.4594    0.7187 H   0  0  0  0  0  0  0  0  0  0  0  0
    6.4726    3.8503    0.2299 H   0  0  0  0  0  0  0  0  0  0  0  0
    7.8555    1.9965   -0.6688 H   0  0  0  0  0  0  0  0  0  0  0  0
    6.9013   -0.2250   -0.9864 H   0  0  0  0  0  0  0  0  0  0  0  0
    1.5782   -2.4935    0.8240 H   0  0  0  0  0  0  0  0  0  0  0  0
    1.4403   -2.3680   -0.9184 H   0  0  0  0  0  0  0  0  0  0  0  0
    2.5425   -4.4491    0.5060 H   0  0  0  0  0  0  0  0  0  0  0  0
    2.6398   -4.2083   -1.2345 H   0  0  0  0  0  0  0  0  0  0  0  0
    4.5492   -5.8463   -0.2755 H   0  0  0  0  0  0  0  0  0  0  0  0
    7.0002   -5.9029   -0.0169 H   0  0  0  0  0  0  0  0  0  0  0  0
    8.2365   -3.7839    0.3507 H   0  0  0  0  0  0  0  0  0  0  0  0
    7.0624   -1.6744    0.4483 H   0  0  0  0  0  0  0  0  0  0  0  0
  1  2  2  0  0  0  0
  2  3  1  0  0  0  0
  2 11  1  0  0  0  0
  3  4  1  0  0  0  0
  3 20  1  0  0  0  0
  4  5  1  0  0  0  0
  4  9  2  0  0  0  0
  5  6  2  0  0  0  0
  5 21  1  0  0  0  0
  6  7  1  0  0  0  0
  6 22  1  0  0  0  0
  7  8  2  0  0  0  0
  7 23  1  0  0  0  0
  8  9  1  0  0  0  0
  8 24  1  0  0  0  0
  9 10  1  0  0  0  0
 10 11  2  0  0  0  0
 10 19  1  0  0  0  0
 11 12  1  0  0  0  0
 12 13  1  0  0  0  0
 12 25  1  0  0  0  0
 12 26  1  0  0  0  0
 13 14  1  0  0  0  0
 13 27  1  0  0  0  0
 13 28  1  0  0  0  0
 14 15  1  0  0  0  0
 14 19  2  0  0  0  0
 15 16  2  0  0  0  0
 15 29  1  0  0  0  0
 16 17  1  0  0  0  0
 16 30  1  0  0  0  0
 17 18  2  0  0  0  0
 17 31  1  0  0  0  0
 18 19  1  0  0  0  0
 18 32  1  0  0  0  0
M  END
$$$$
