
     RDKit          3D

 44 43  0  0  0  0  0  0  0  0999 V2000
    3.1063   -0.0331   -0.2293 C   0  0  0  0  0  0  0  0  0  0  0  0
    1.4617   -0.4930    0.4665 P   0  0  0  0  0  5  0  0  0  0  0  0
    1.7576    0.4943    1.8627 C   0  0  0  0  0  0  0  0  0  0  0  0
    1.7396   -2.1390    0.0654 C   0  0  0  0  0  0  0  0  0  0  0  0
    0.0384    0.3201   -0.5045 Pt  0  0  0  0  0  6  0  0  0  0  0  0
    0.5567    1.9371    0.1443 N   0  0  0  0  0  0  0  0  0  0  0  0
   -0.0702    2.9571   -0.0203 N   0  0  0  0  0  4  0  0  0  0  0  0
   -0.4396    4.0702   -0.3537 N   0  0  0  0  0  2  0  0  0  0  0  0
   -0.3857   -1.2241   -1.5031 C   0  0  0  0  0  0  0  0  0  0  0  0
    1.2767    0.6693   -1.9139 C   0  0  0  0  0  0  0  0  0  0  0  0
   -1.2233    1.2118   -1.5990 C   0  0  0  0  0  0  0  0  0  0  0  0
   -1.3586    0.0317    0.7525 P   0  0  0  0  0  5  0  0  0  0  0  0
   -2.5174    1.3405    0.9814 C   0  0  0  0  0  0  0  0  0  0  0  0
   -2.6431   -1.0060   -0.0463 C   0  0  0  0  0  0  0  0  0  0  0  0
   -1.0659   -1.1746    1.9784 C   0  0  0  0  0  0  0  0  0  0  0  0
    3.8834   -0.4769    0.4621 H   0  0  0  0  0  0  0  0  0  0  0  0
    3.2625    1.0246   -0.2042 H   0  0  0  0  0  0  0  0  0  0  0  0
    3.3348   -0.4755   -1.1818 H   0  0  0  0  0  0  0  0  0  0  0  0
    1.0823   -1.1912    1.5224 H   0  0  0  0  0  0  0  0  0  0  0  0
    2.7480    0.4083    2.4177 H   0  0  0  0  0  0  0  0  0  0  0  0
    0.9627    0.8409    2.5715 H   0  0  0  0  0  0  0  0  0  0  0  0
    1.9262    1.5526    1.4394 H   0  0  0  0  0  0  0  0  0  0  0  0
    0.9923   -2.9741    0.1583 H   0  0  0  0  0  0  0  0  0  0  0  0
    1.8019   -2.1694   -1.0778 H   0  0  0  0  0  0  0  0  0  0  0  0
    2.7582   -2.6052    0.2538 H   0  0  0  0  0  0  0  0  0  0  0  0
   -0.3742   -2.1238   -0.9248 H   0  0  0  0  0  0  0  0  0  0  0  0
   -1.4282   -1.1524   -1.9131 H   0  0  0  0  0  0  0  0  0  0  0  0
    0.2611   -1.3831   -2.3723 H   0  0  0  0  0  0  0  0  0  0  0  0
    0.7465    1.0534   -2.8386 H   0  0  0  0  0  0  0  0  0  0  0  0
    1.9843    1.4562   -1.6872 H   0  0  0  0  0  0  0  0  0  0  0  0
    1.6829   -0.2812   -2.2982 H   0  0  0  0  0  0  0  0  0  0  0  0
   -1.8579    0.4991   -2.1463 H   0  0  0  0  0  0  0  0  0  0  0  0
   -1.7525    1.9669   -0.9980 H   0  0  0  0  0  0  0  0  0  0  0  0
   -0.7419    1.8003   -2.4201 H   0  0  0  0  0  0  0  0  0  0  0  0
   -0.8173    0.7691    1.6982 H   0  0  0  0  0  0  0  0  0  0  0  0
   -3.2527    1.0617    1.8002 H   0  0  0  0  0  0  0  0  0  0  0  0
   -2.2644    2.4273    0.9996 H   0  0  0  0  0  0  0  0  0  0  0  0
   -3.3002    1.4592    0.1505 H   0  0  0  0  0  0  0  0  0  0  0  0
   -3.4789   -1.1822    0.6946 H   0  0  0  0  0  0  0  0  0  0  0  0
   -2.1943   -1.9467   -0.2138 H   0  0  0  0  0  0  0  0  0  0  0  0
   -3.0474   -0.4460   -0.8580 H   0  0  0  0  0  0  0  0  0  0  0  0
   -0.3506   -1.1236    2.8042 H   0  0  0  0  0  0  0  0  0  0  0  0
   -2.0154   -1.5420    2.5078 H   0  0  0  0  0  0  0  0  0  0  0  0
   -0.7844   -2.2087    1.5730 H   0  0  0  0  0  0  0  0  0  0  0  0
  1  2  1  0
  2  3  1  0
  2  4  1  0
  2  5  1  0
  5  6  1  0
  6  7  2  0
  7  8  2  0
  5  9  1  0
  5 10  1  0
  5 11  1  0
  5 12  1  0
 12 13  1  0
 12 14  1  0
 12 15  1  0
  1 16  1  0
  1 17  1  0
  1 18  1  0
  2 19  1  0
  3 20  1  0
  3 21  1  0
  3 22  1  0
  4 23  1  0
  4 24  1  0
  4 25  1  0
  9 26  1  0
  9 27  1  0
  9 28  1  0
 10 29  1  0
 10 30  1  0
 10 31  1  0
 11 32  1  0
 11 33  1  0
 11 34  1  0
 12 35  1  0
 13 36  1  0
 13 37  1  0
 13 38  1  0
 14 39  1  0
 14 40  1  0
 14 41  1  0
 15 42  1  0
 15 43  1  0
 15 44  1  0
M  CHG  2   7   1   8  -1
M  END
