
  --CCDC--092525    3D                              

 42 41  0  0  0  0  0  0  0  0999 V2000
    0.0000    0.0001    0.0000 C      0
    1.9232    0.0001   -0.6805 Pt     0
    1.3354    1.1014   -2.2933 C      0
    3.8461    0.0001   -1.3610 C      0
    2.2996    1.7150    0.3593 N      0
    1.3759    2.2786    0.9960 N      3
    0.5241    2.6625    1.6547 N      5
    1.5054   -2.0268   -1.9148 P      0
   -0.2378   -2.3163   -2.3069 C      0
    2.3588   -1.9818   -3.5101 C      0
    2.1271   -3.4449   -0.9804 C      0
    2.5893   -1.3175    1.2251 P      0
    1.2810   -2.4446    1.7675 C      0
    2.8929   -0.1818    2.5997 C      0
    4.1417   -2.2020    0.9350 C      0
   -0.5897    0.7070   -0.5797 H      0
   -0.4221   -0.9971   -0.1061 H      0
   -0.0140    0.2900    1.0486 H      0
    0.4323    1.6551   -2.0448 H      0
    1.1347    0.4378   -3.1318 H      0
    2.1254    1.7989   -2.5637 H      0
    4.0738   -0.9671   -1.8044 H      0
    4.5247    0.1874   -0.5314 H      0
    3.9655    0.7797   -2.1104 H      0
   -0.3347   -3.1351   -3.0167 H      0
   -0.6878   -1.4309   -2.7512 H      0
   -0.8063   -2.5842   -1.4196 H      0
    1.9870   -2.7766   -4.1532 H      0
    3.4309   -2.1259   -3.4135 H      0
    2.1823   -1.0347   -4.0156 H      0
    1.6133   -3.6279   -0.0512 H      0
    3.1981   -3.3936   -0.8329 H      0
    1.9608   -4.3373   -1.5797 H      0
    0.4615   -2.4730    1.0523 H      0
    0.8652   -2.1064    2.7141 H      0
    1.6643   -3.4530    1.9095 H      0
    1.9941    0.3826    2.8394 H      0
    3.6805    0.5257    2.3487 H      0
    3.1983   -0.7271    3.4903 H      0
    4.4805   -2.1004   -0.0925 H      0
    4.0334   -3.2605    1.1621 H      0
    4.9259   -1.8016    1.5738 H      0
  1  2  1
  2  3  1
  2  4  1
  2  5  1
  5  6  2
  6  7  2
  2  8  1
  8  9  1
  8 10  1
  8 11  1
  2 12  1
 12 13  1
 12 14  1
 12 15  1
  1 16  1
  1 17  1
  1 18  1
  3 19  1
  3 20  1
  3 21  1
  4 22  1
  4 23  1
  4 24  1
  9 25  1
  9 26  1
  9 27  1
 10 28  1
 10 29  1
 10 30  1
 11 31  1
 11 32  1
 11 33  1
 13 34  1
 13 35  1
 13 36  1
 14 37  1
 14 38  1
 14 39  1
 15 40  1
 15 41  1
 15 42  1
M  CHG  2   6   1   7  -1
M  END
$$$$
