
 OpenBabel09252516293D

 26 26  0  0  0  0  0  0  0  0999 V2000
    3.1429   -0.0869    0.7695 H   0  0  0  0  0  0  0  0  0  0  0  0
    2.8719   -0.3827   -0.2382 C   0  0  0  0  0  3  0  0  0  0  0  0
    2.1611   -1.6412   -0.4398 C   0  0  0  0  0  3  0  0  0  0  0  0
    1.9693   -2.2807    0.4152 H   0  0  0  0  0  0  0  0  0  0  0  0
    1.8877   -2.1144   -1.7997 C   0  0  0  0  0  3  0  0  0  0  0  0
    1.5614   -3.5211   -2.0340 N   0  0  0  0  0  0  0  0  0  0  0  0
    1.5159   -4.2711   -1.0491 O   0  0  0  0  0  0  0  0  0  0  0  0
    1.3605   -3.8769   -3.2031 O   0  0  0  0  0  0  0  0  0  0  0  0
    2.1486   -1.2246   -2.9340 C   0  0  0  0  0  3  0  0  0  0  0  0
    1.9570   -1.5547   -3.9494 H   0  0  0  0  0  0  0  0  0  0  0  0
    2.8826    0.0184   -2.7246 C   0  0  0  0  0  3  0  0  0  0  0  0
    3.2285    0.5817   -3.5861 H   0  0  0  0  0  0  0  0  0  0  0  0
    3.4146    0.3456   -1.3942 C   0  0  0  0  0  3  0  0  0  0  0  0
    4.7030    1.0888   -1.3026 C   0  0  0  0  0  0  0  0  0  0  0  0
    5.4434    1.2625   -2.2601 O   0  0  0  0  0  0  0  0  0  0  0  0
    4.9556    1.4464   -0.0201 O   0  0  0  0  0  0  0  0  0  0  0  0
    6.3146    1.8163    0.2805 C   0  0  0  0  0  0  0  0  0  0  0  0
    6.9933    1.0695   -0.1505 H   0  0  0  0  0  0  0  0  0  0  0  0
    6.6574    3.2081   -0.2386 C   0  0  0  0  0  0  0  0  0  0  0  0
    5.9431    3.9524    0.1273 H   0  0  0  0  0  0  0  0  0  0  0  0
    7.6657    3.5016    0.0712 H   0  0  0  0  0  0  0  0  0  0  0  0
    6.6220    3.2476   -1.3312 H   0  0  0  0  0  0  0  0  0  0  0  0
    6.4478    1.7694    1.7992 C   0  0  0  0  0  0  0  0  0  0  0  0
    5.7920    2.5094    2.2720 H   0  0  0  0  0  0  0  0  0  0  0  0
    6.1412    0.7896    2.1819 H   0  0  0  0  0  0  0  0  0  0  0  0
    7.4774    1.9621    2.1149 H   0  0  0  0  0  0  0  0  0  0  0  0
  1  2  1  0  0  0  0
  2  3  1  0  0  0  0
  2 13  1  0  0  0  0
  3  4  1  0  0  0  0
  3  5  1  0  0  0  0
  5  6  1  0  0  0  0
  5  9  1  0  0  0  0
  6  7  2  0  0  0  0
  6  8  2  0  0  0  0
  9 10  1  0  0  0  0
  9 11  1  0  0  0  0
 11 12  1  0  0  0  0
 11 13  1  0  0  0  0
 13 14  1  0  0  0  0
 14 15  2  0  0  0  0
 14 16  1  0  0  0  0
 16 17  1  0  0  0  0
 17 18  1  0  0  0  0
 17 19  1  0  0  0  0
 17 23  1  0  0  0  0
 19 20  1  0  0  0  0
 19 21  1  0  0  0  0
 19 22  1  0  0  0  0
 23 24  1  0  0  0  0
 23 25  1  0  0  0  0
 23 26  1  0  0  0  0
M  END
$$$$
