
     RDKit          3D

 46 54  0  0  0  0  0  0  0  0999 V2000
   -0.0015    1.7047   -2.0595 Cl  0  0  0  0  0  0  0  0  0  0  0  0
   -0.5381    0.2780   -0.6404 Ir  0  0  0  0  0  9  0  0  0  0  0  0
   -0.4841   -0.7534   -2.3430 C   0  0  0  0  0  0  0  0  0  0  0  0
    0.5330   -0.8869   -1.6497 C   0  0  0  0  0  0  0  0  0  0  0  0
    1.8519   -1.2200   -1.0232 C   0  0  0  0  0  0  0  0  0  0  0  0
    2.7994   -2.2208   -1.3443 C   0  0  0  0  0  0  0  0  0  0  0  0
    3.9956   -2.2530   -0.7681 C   0  0  0  0  0  0  0  0  0  0  0  0
    4.2497   -1.2874    0.1253 C   0  0  0  0  0  0  0  0  0  0  0  0
    3.3045   -0.3400    0.4127 C   0  0  0  0  0  0  0  0  0  0  0  0
    3.8544    0.6310    1.2774 C   0  0  0  0  0  0  0  0  0  0  0  0
    3.0352    1.6948    1.5490 C   0  0  0  0  0  0  0  0  0  0  0  0
    1.8102    1.6578    0.9545 C   0  0  0  0  0  0  0  0  0  0  0  0
    1.1444    0.7339    0.0747 C   0  0  0  0  0  0  0  0  0  0  0  0
    2.0192   -0.2544   -0.1467 C   0  0  0  0  0  0  0  0  0  0  0  0
   -1.0508   -0.8289    0.4041 C   0  0  0  0  0  0  0  0  0  0  0  0
   -0.5518   -1.9364    1.1444 C   0  0  0  0  0  0  0  0  0  0  0  0
   -2.1132   -0.5105   -0.3903 C   0  0  0  0  0  0  0  0  0  0  0  0
   -2.9740   -1.5645   -0.5217 C   0  0  0  0  0  0  0  0  0  0  0  0
   -2.1728    0.8170   -0.9342 C   0  0  0  0  0  0  0  0  0  0  0  0
   -3.1296    1.1703   -1.8911 C   0  0  0  0  0  0  0  0  0  0  0  0
   -1.5251    1.5051   -0.0592 C   0  0  0  0  0  0  0  0  0  0  0  0
   -1.5346    2.8475    0.4417 C   0  0  0  0  0  0  0  0  0  0  0  0
   -1.2013    0.4338    0.8561 C   0  0  0  0  0  0  0  0  0  0  0  0
   -1.4962    0.4894    2.1881 C   0  0  0  0  0  0  0  0  0  0  0  0
   -0.7664   -1.2136   -3.3709 H   0  0  0  0  0  0  0  0  0  0  0  0
    2.5114   -2.9795   -2.0848 H   0  0  0  0  0  0  0  0  0  0  0  0
    4.6524   -3.0498   -1.0687 H   0  0  0  0  0  0  0  0  0  0  0  0
    5.2263   -1.3315    0.5746 H   0  0  0  0  0  0  0  0  0  0  0  0
    4.8242    0.6173    1.7303 H   0  0  0  0  0  0  0  0  0  0  0  0
    3.2472    2.5240    2.1560 H   0  0  0  0  0  0  0  0  0  0  0  0
    1.1699    2.5451    1.1666 H   0  0  0  0  0  0  0  0  0  0  0  0
   -0.7560   -1.7313    2.2136 H   0  0  0  0  0  0  0  0  0  0  0  0
   -1.0368   -2.8734    0.8725 H   0  0  0  0  0  0  0  0  0  0  0  0
    0.5673   -2.1052    1.1316 H   0  0  0  0  0  0  0  0  0  0  0  0
   -3.4761   -1.5789   -1.5418 H   0  0  0  0  0  0  0  0  0  0  0  0
   -2.5782   -2.6231   -0.4604 H   0  0  0  0  0  0  0  0  0  0  0  0
   -3.8246   -1.5336    0.1980 H   0  0  0  0  0  0  0  0  0  0  0  0
   -3.3295    0.3621   -2.6333 H   0  0  0  0  0  0  0  0  0  0  0  0
   -4.0337    1.5597   -1.4138 H   0  0  0  0  0  0  0  0  0  0  0  0
   -2.7744    2.0248   -2.5413 H   0  0  0  0  0  0  0  0  0  0  0  0
   -0.7677    3.4497   -0.1356 H   0  0  0  0  0  0  0  0  0  0  0  0
   -1.3339    3.0599    1.4773 H   0  0  0  0  0  0  0  0  0  0  0  0
   -2.4921    3.3192    0.1434 H   0  0  0  0  0  0  0  0  0  0  0  0
   -2.0706    1.4323    2.4402 H   0  0  0  0  0  0  0  0  0  0  0  0
   -2.1636   -0.3120    2.6103 H   0  0  0  0  0  0  0  0  0  0  0  0
   -0.6197    0.5304    2.8798 H   0  0  0  0  0  0  0  0  0  0  0  0
  1  2  1  0
  2  3  1  0
  3  4  2  0
  4  5  1  0
  5  6  2  0
  6  7  1  0
  7  8  2  0
  8  9  1  0
  9 10  2  0
 10 11  1  0
 11 12  2  0
 12 13  1  0
 13 14  2  0
  2 15  1  0
 15 16  1  0
 15 17  1  0
 17 18  1  0
 17 19  1  0
 19 20  1  0
 19 21  1  0
 21 22  1  0
 21 23  1  0
 23 24  1  0
  4  2  1  0
 14  5  1  0
 23 15  1  0
 13  2  1  0
 17  2  1  0
 19  2  1  0
 21  2  1  0
 23  2  1  0
 14  9  1  0
  3 25  1  0
  6 26  1  0
  7 27  1  0
  8 28  1  0
 10 29  1  0
 11 30  1  0
 12 31  1  0
 16 32  1  0
 16 33  1  0
 16 34  1  0
 18 35  1  0
 18 36  1  0
 18 37  1  0
 20 38  1  0
 20 39  1  0
 20 40  1  0
 22 41  1  0
 22 42  1  0
 22 43  1  0
 24 44  1  0
 24 45  1  0
 24 46  1  0
M  END
