
 OpenBabel09252517433D

114121  0  0  0  0  0  0  0  0999 V2000
    0.9814    0.0827   -0.0530 C   0  0  0  0  0  0  0  0  0  0  0  0
    0.5080   -0.0745    1.2765 O   0  0  0  0  0  0  0  0  0  0  0  0
   -0.0175   -1.3028    1.4253 C   0  0  0  0  0  0  0  0  0  0  0  0
   -1.2166   -1.2330    2.2555 C   0  0  0  0  0  0  0  0  0  0  0  0
   -1.7997    0.1729    1.9773 O   0  0  0  0  0  0  0  0  0  0  0  0
   -2.3954    0.7251    3.1420 C   0  0  0  0  0  0  0  0  0  0  0  0
   -0.5455    0.9586    1.5646 Eu  0  0  0  0  0  0  0  0  0  0  0  0
   -1.3658   -1.5604    1.0977 N   0  0  0  0  0  0  0  0  0  0  0  0
   -0.6893   -2.3303    0.2728 C   0  0  0  0  0  0  0  0  0  0  0  0
    0.1437   -3.2782   -0.7430 S   0  0  0  0  0  0  0  0  0  0  0  0
   -2.0413    2.3967    3.2765 N   0  0  0  0  0  0  0  0  0  0  0  0
   -1.8841    2.2096    4.7260 C   0  0  0  0  0  0  0  0  0  0  0  0
   -0.7132    2.4389    5.2806 C   0  0  0  0  0  0  0  0  0  0  0  0
   -0.6003    2.3138    6.6610 C   0  0  0  0  0  0  0  0  0  0  0  0
   -1.7918    2.4532    7.4072 C   0  0  0  0  0  0  0  0  0  0  0  0
   -2.9522    1.9562    6.8163 C   0  0  0  0  0  0  0  0  0  0  0  0
   -2.9856    1.8397    5.5057 C   0  0  0  0  0  0  0  0  0  0  0  0
   -4.2350    1.2970    4.8313 C   0  0  0  0  0  0  0  0  0  0  0  0
   -4.5140   -0.1088    5.3375 C   0  0  0  0  0  0  0  0  0  0  0  0
   -5.4169    2.1961    5.1555 C   0  0  0  0  0  0  0  0  0  0  0  0
    0.4864    2.8308    4.4335 C   0  0  0  0  0  0  0  0  0  0  0  0
    0.9940    4.1941    4.8739 C   0  0  0  0  0  0  0  0  0  0  0  0
    1.5889    1.7990    4.6082 C   0  0  0  0  0  0  0  0  0  0  0  0
   -3.0160    3.3696    2.7624 C   0  0  0  0  0  0  0  0  0  0  0  0
   -3.0921    4.6732    3.0105 C   0  0  0  0  0  0  0  0  0  0  0  0
    0.3579    1.7450   -0.8440 N   0  0  0  0  0  0  0  0  0  0  0  0
    0.9060    3.0979   -1.0175 C   0  0  0  0  0  0  0  0  0  0  0  0
    1.9524    3.4863   -0.3208 C   0  0  0  0  0  0  0  0  0  0  0  0
    2.4422    4.7717   -0.5255 C   0  0  0  0  0  0  0  0  0  0  0  0
    2.1388    5.3726   -1.7676 C   0  0  0  0  0  0  0  0  0  0  0  0
    0.8899    5.0741   -2.3094 C   0  0  0  0  0  0  0  0  0  0  0  0
    0.2958    3.9610   -1.9344 C   0  0  0  0  0  0  0  0  0  0  0  0
   -1.0687    3.6090   -2.5040 C   0  0  0  0  0  0  0  0  0  0  0  0
   -2.0639    4.7010   -2.1467 C   0  0  0  0  0  0  0  0  0  0  0  0
   -0.9708    3.4879   -4.0160 C   0  0  0  0  0  0  0  0  0  0  0  0
    2.6097    2.5531    0.6829 C   0  0  0  0  0  0  0  0  0  0  0  0
    4.0591    2.3227    0.2869 C   0  0  0  0  0  0  0  0  0  0  0  0
    2.5560    3.1788    2.0671 C   0  0  0  0  0  0  0  0  0  0  0  0
   -4.2578    5.2499    2.3298 C   0  0  0  0  0  0  0  0  0  0  0  0
   -4.8740    6.5848    2.2086 C   0  0  0  0  0  0  0  0  0  0  0  0
   -5.9672    6.7272    1.4794 C   0  0  0  0  0  0  0  0  0  0  0  0
   -6.6011    5.5909    0.7750 C   0  0  0  0  0  0  0  0  0  0  0  0
   -6.0530    4.4043    0.8830 C   0  0  0  0  0  0  0  0  0  0  0  0
   -6.5389    3.1625    0.2575 C   0  0  0  0  0  0  0  0  0  0  0  0
   -5.8635    2.0482    0.4721 C   0  0  0  0  0  0  0  0  0  0  0  0
   -4.6493    1.9628    1.3001 C   0  0  0  0  0  0  0  0  0  0  0  0
   -4.1453    3.0194    1.8868 C   0  0  0  0  0  0  0  0  0  0  0  0
   -4.8483    4.2883    1.6960 C   0  0  0  0  0  0  0  0  0  0  0  0
   -0.8148    1.8325    0.3714 O   0  0  0  0  0  0  0  0  0  0  0  0
   -2.1535    1.6426   -0.0623 C   0  0  0  0  0  0  0  0  0  0  0  0
   -0.6317    3.1203    0.7104 C   0  0  0  0  0  0  0  0  0  0  0  0
    0.2055    3.2058    1.9030 C   0  0  0  0  0  0  0  0  0  0  0  0
   -0.1035    1.9104    2.6909 O   0  0  0  0  0  0  0  0  0  0  0  0
    1.0511    1.4223    3.3580 C   0  0  0  0  0  0  0  0  0  0  0  0
    0.6247    1.0096   -0.4513 H   0  0  0  0  0  0  0  0  0  0  0  0
    0.6247   -0.7256   -0.6565 H   0  0  0  0  0  0  0  0  0  0  0  0
    2.0514    0.0827   -0.0530 H   0  0  0  0  0  0  0  0  0  0  0  0
    0.7016   -1.9388    1.8978 H   0  0  0  0  0  0  0  0  0  0  0  0
   -0.2738   -1.6978    0.4645 H   0  0  0  0  0  0  0  0  0  0  0  0
   -1.9129   -2.0138    2.0308 H   0  0  0  0  0  0  0  0  0  0  0  0
   -0.9668   -1.3408    3.2903 H   0  0  0  0  0  0  0  0  0  0  0  0
   -1.6943    0.6950    3.9497 H   0  0  0  0  0  0  0  0  0  0  0  0
   -2.6770    1.7397    2.9518 H   0  0  0  0  0  0  0  0  0  0  0  0
   -3.2638    0.1567    3.4021 H   0  0  0  0  0  0  0  0  0  0  0  0
    0.3403    2.1220    7.1336 H   0  0  0  0  0  0  0  0  0  0  0  0
   -1.8029    2.9147    8.3724 H   0  0  0  0  0  0  0  0  0  0  0  0
   -3.7949    1.6764    7.4133 H   0  0  0  0  0  0  0  0  0  0  0  0
   -4.0862    1.2717    3.7720 H   0  0  0  0  0  0  0  0  0  0  0  0
   -4.6629   -0.0835    6.3968 H   0  0  0  0  0  0  0  0  0  0  0  0
   -5.3936   -0.4908    4.8628 H   0  0  0  0  0  0  0  0  0  0  0  0
   -3.6820   -0.7417    5.1093 H   0  0  0  0  0  0  0  0  0  0  0  0
   -5.2205    3.1857    4.7992 H   0  0  0  0  0  0  0  0  0  0  0  0
   -6.2965    1.8141    4.6808 H   0  0  0  0  0  0  0  0  0  0  0  0
   -5.5658    2.2214    6.2148 H   0  0  0  0  0  0  0  0  0  0  0  0
    0.1976    2.8732    3.4041 H   0  0  0  0  0  0  0  0  0  0  0  0
    1.2829    4.1517    5.9032 H   0  0  0  0  0  0  0  0  0  0  0  0
    1.8385    4.4700    4.2775 H   0  0  0  0  0  0  0  0  0  0  0  0
    0.2180    4.9204    4.7509 H   0  0  0  0  0  0  0  0  0  0  0  0
    1.2315    0.8393    4.2982 H   0  0  0  0  0  0  0  0  0  0  0  0
    2.4333    2.0749    4.0118 H   0  0  0  0  0  0  0  0  0  0  0  0
    1.8778    1.7566    5.6376 H   0  0  0  0  0  0  0  0  0  0  0  0
    3.0189    5.2793    0.2193 H   0  0  0  0  0  0  0  0  0  0  0  0
    2.8296    6.0210   -2.2648 H   0  0  0  0  0  0  0  0  0  0  0  0
    0.4255    5.7333   -3.0127 H   0  0  0  0  0  0  0  0  0  0  0  0
   -1.3978    2.6779   -2.0922 H   0  0  0  0  0  0  0  0  0  0  0  0
   -1.7349    5.6321   -2.5585 H   0  0  0  0  0  0  0  0  0  0  0  0
   -3.0245    4.4532   -2.5476 H   0  0  0  0  0  0  0  0  0  0  0  0
   -2.1329    4.7863   -1.0823 H   0  0  0  0  0  0  0  0  0  0  0  0
   -0.2702    2.7192   -4.2676 H   0  0  0  0  0  0  0  0  0  0  0  0
   -1.9314    3.2401   -4.4170 H   0  0  0  0  0  0  0  0  0  0  0  0
   -0.6417    4.4190   -4.4279 H   0  0  0  0  0  0  0  0  0  0  0  0
    2.0900    1.6179    0.6939 H   0  0  0  0  0  0  0  0  0  0  0  0
    4.5788    3.2580    0.2760 H   0  0  0  0  0  0  0  0  0  0  0  0
    4.5218    1.6658    0.9935 H   0  0  0  0  0  0  0  0  0  0  0  0
    4.0969    1.8823   -0.6875 H   0  0  0  0  0  0  0  0  0  0  0  0
    1.5358    3.3410    2.3459 H   0  0  0  0  0  0  0  0  0  0  0  0
    3.0187    2.5219    2.7737 H   0  0  0  0  0  0  0  0  0  0  0  0
    3.0758    4.1141    2.0562 H   0  0  0  0  0  0  0  0  0  0  0  0
   -4.4410    7.4279    2.7052 H   0  0  0  0  0  0  0  0  0  0  0  0
   -6.4092    7.6980    1.3955 H   0  0  0  0  0  0  0  0  0  0  0  0
   -7.4862    5.7339    0.1911 H   0  0  0  0  0  0  0  0  0  0  0  0
   -7.4163    3.1632   -0.3550 H   0  0  0  0  0  0  0  0  0  0  0  0
   -6.2219    1.1497    0.0149 H   0  0  0  0  0  0  0  0  0  0  0  0
   -4.1675    1.0157    1.4253 H   0  0  0  0  0  0  0  0  0  0  0  0
   -2.8251    1.9019    0.7293 H   0  0  0  0  0  0  0  0  0  0  0  0
   -2.3452    2.2654   -0.9110 H   0  0  0  0  0  0  0  0  0  0  0  0
   -2.2990    0.6175   -0.3321 H   0  0  0  0  0  0  0  0  0  0  0  0
   -1.5813    3.5695    0.9136 H   0  0  0  0  0  0  0  0  0  0  0  0
   -0.1533    3.6350   -0.0966 H   0  0  0  0  0  0  0  0  0  0  0  0
    0.0059    4.0869    2.4765 H   0  0  0  0  0  0  0  0  0  0  0  0
    1.2408    3.2474    1.6356 H   0  0  0  0  0  0  0  0  0  0  0  0
    1.8147    1.2088    2.6394 H   0  0  0  0  0  0  0  0  0  0  0  0
    1.4052    2.1618    4.0456 H   0  0  0  0  0  0  0  0  0  0  0  0
    0.8036    0.5285    3.8917 H   0  0  0  0  0  0  0  0  0  0  0  0
  1  2  1  0  0  0  0
  1 55  1  0  0  0  0
  1 56  1  0  0  0  0
  1 57  1  0  0  0  0
  2  3  1  0  0  0  0
  2  7  1  0  0  0  0
  3  4  1  0  0  0  0
  3 58  1  0  0  0  0
  3 59  1  0  0  0  0
  4  5  1  0  0  0  0
  4 60  1  0  0  0  0
  4 61  1  0  0  0  0
  5  6  1  0  0  0  0
  5  7  1  0  0  0  0
  6 62  1  0  0  0  0
  6 63  1  0  0  0  0
  6 64  1  0  0  0  0
  7  8  1  0  0  0  0
  7 11  1  0  0  0  0
  7 26  1  0  0  0  0
  7 49  1  0  0  0  0
  7 53  1  0  0  0  0
  8  9  2  0  0  0  0
  9 10  2  0  0  0  0
 11 12  1  0  0  0  0
 11 24  1  0  0  0  0
 12 13  1  0  0  0  0
 12 17  2  0  0  0  0
 13 14  2  0  0  0  0
 13 21  1  0  0  0  0
 14 15  1  0  0  0  0
 14 65  1  0  0  0  0
 15 16  2  0  0  0  0
 15 66  1  0  0  0  0
 16 17  1  0  0  0  0
 16 67  1  0  0  0  0
 17 18  1  0  0  0  0
 18 19  1  0  0  0  0
 18 20  1  0  0  0  0
 18 68  1  0  0  0  0
 19 69  1  0  0  0  0
 19 70  1  0  0  0  0
 19 71  1  0  0  0  0
 20 72  1  0  0  0  0
 20 73  1  0  0  0  0
 20 74  1  0  0  0  0
 21 22  1  0  0  0  0
 21 23  1  0  0  0  0
 21 75  1  0  0  0  0
 22 76  1  0  0  0  0
 22 77  1  0  0  0  0
 22 78  1  0  0  0  0
 23 79  1  0  0  0  0
 23 80  1  0  0  0  0
 23 81  1  0  0  0  0
 24 25  2  0  0  0  0
 24 47  1  0  0  0  0
 25 26  1  0  0  0  0
 25 39  1  0  0  0  0
 26 27  1  0  0  0  0
 27 28  1  0  0  0  0
 27 32  2  0  0  0  0
 28 29  2  0  0  0  0
 28 36  1  0  0  0  0
 29 30  1  0  0  0  0
 29 82  1  0  0  0  0
 30 31  2  0  0  0  0
 30 83  1  0  0  0  0
 31 32  1  0  0  0  0
 31 84  1  0  0  0  0
 32 33  1  0  0  0  0
 33 34  1  0  0  0  0
 33 35  1  0  0  0  0
 33 85  1  0  0  0  0
 34 86  1  0  0  0  0
 34 87  1  0  0  0  0
 34 88  1  0  0  0  0
 35 89  1  0  0  0  0
 35 90  1  0  0  0  0
 35 91  1  0  0  0  0
 36 37  1  0  0  0  0
 36 38  1  0  0  0  0
 36 92  1  0  0  0  0
 37 93  1  0  0  0  0
 37 94  1  0  0  0  0
 37 95  1  0  0  0  0
 38 96  1  0  0  0  0
 38 97  1  0  0  0  0
 38 98  1  0  0  0  0
 39 40  1  0  0  0  0
 39 48  2  0  0  0  0
 40 41  2  0  0  0  0
 40 99  1  0  0  0  0
 41 42  1  0  0  0  0
 41100  1  0  0  0  0
 42 43  2  0  0  0  0
 42101  1  0  0  0  0
 43 44  1  0  0  0  0
 43 48  1  0  0  0  0
 44 45  2  0  0  0  0
 44102  1  0  0  0  0
 45 46  1  0  0  0  0
 45103  1  0  0  0  0
 46 47  2  0  0  0  0
 46104  1  0  0  0  0
 47 48  1  0  0  0  0
 49 50  1  0  0  0  0
 49 51  1  0  0  0  0
 50105  1  0  0  0  0
 50106  1  0  0  0  0
 50107  1  0  0  0  0
 51 52  1  0  0  0  0
 51108  1  0  0  0  0
 51109  1  0  0  0  0
 52 53  1  0  0  0  0
 52110  1  0  0  0  0
 52111  1  0  0  0  0
 53 54  1  0  0  0  0
 54112  1  0  0  0  0
 54113  1  0  0  0  0
 54114  1  0  0  0  0
M  END
$$$$
