
  --CCDC--092525    3D                              

 87103  0  0  0  0  0  0  0  0999 V2000
   -0.0827    0.1432   -0.0616 H      0
   -1.8504    0.3700   -0.0495 Ru     0
   -1.2397    2.1461    1.4705 Cl     0
    0.6548    1.7643   -0.0180 Ru     0
   -1.0636    1.9753   -1.8286 P      3
   -0.3978    1.4556   -3.4578 C      0
   -0.3551    0.1604   -3.9423 C      0
   -0.7990   -0.0651   -5.2255 C      0
   -0.1688    0.7314   -6.1519 C      0
    0.5287    1.8236   -5.6639 C      0
    0.2257    2.3017   -4.3804 C      0
   -1.7922    3.6397   -1.8213 C      0
   -2.2674    4.1729   -3.0107 C      0
   -2.9277    5.3939   -3.0285 C      0
   -3.1285    6.0972   -1.8591 C      0
   -2.6287    5.6009   -0.6759 C      0
   -1.9324    4.4053   -0.6701 C      0
    1.6661    2.9118   -1.3761 C      0
    2.9036    3.5199   -1.9982 C      0
    2.2095    1.4510   -1.2396 C      0
    2.3897    0.5291   -2.4167 C      0
    2.4360    0.8346    0.1533 C      0
    2.6888   -0.6561    0.2664 C      0
    2.0592    1.6291    1.4189 C      0
    1.9824    0.9048    2.7465 C      0
    1.4520    3.0472    1.2919 C      0
    0.8294    3.7079    2.5100 C      0
    1.2463    3.7103   -0.1068 C      0
    2.1217    4.9148    0.1918 C      0
   -3.4288    0.3296    1.2738 C      0
   -4.6219   -0.3533    1.9177 C      0
   -2.4652   -0.8858    1.3906 C      0
   -1.8364   -1.2817    2.7137 C      0
   -2.0244   -1.6273    0.1298 C      0
   -0.9351   -2.6932    0.1911 C      0
   -2.4936   -1.1191   -1.2439 C      0
   -1.8319   -1.7833   -2.4159 C      0
   -3.3176    0.1780   -1.3907 C      0
   -3.5307    0.8840   -2.7184 C      0
   -3.8190    0.9116   -0.1162 C      0
   -5.2809    0.7269   -0.4706 C      0
    0.1668   -0.6282   -3.4129 H      0
   -1.4997   -0.8642   -5.4742 H      0
   -0.1455    0.4533   -7.2023 H      0
    1.3424    2.2604   -6.2431 H      0
    0.5308    3.2994   -4.0845 H      0
   -2.1246    3.6317   -3.9410 H      0
   -3.2957    5.7995   -3.9670 H      0
   -3.6626    7.0385   -1.8675 H      0
   -2.7684    6.1509    0.2520 H      0
   -1.4896    4.1000    0.2627 H      0
    3.1899    2.9599   -2.8912 H      0
    3.7501    3.5502   -1.3210 H      0
    2.7015    4.5411   -2.3047 H      0
    1.7409   -0.3316   -2.2875 H      0
    3.4136    0.1577   -2.4672 H      0
    2.1595    1.0275   -3.3552 H      0
    3.3219   -1.0130   -0.5443 H      0
    1.7397   -1.1916    0.2250 H      0
    3.1893   -0.9043    1.2011 H      0
    1.0088    0.4290    2.8390 H      0
    2.1119    1.6005    3.5741 H      0
    2.7528    0.1417    2.8244 H      0
    0.5071    2.9691    3.2407 H      0
   -0.0096    4.3367    2.2212 H      0
    1.5412    4.3662    3.0012 H      0
    2.1478    5.5667   -0.6738 H      0
    3.1328    4.6272    0.4524 H      0
    1.7470    5.5332    1.0070 H      0
   -5.0404   -1.1527    1.3077 H      0
   -5.4204    0.3634    2.0848 H      0
   -4.3558   -0.7778    2.8936 H      0
   -1.6971   -2.3618    2.7700 H      0
   -2.4547   -0.9811    3.5514 H      0
   -0.8610   -0.8237    2.8306 H      0
   -1.0515   -3.4430   -0.5868 H      0
   -0.9493   -3.2107    1.1449 H      0
    0.0296   -2.2196    0.0634 H      0
   -2.0556   -2.8448   -2.4832 H      0
   -0.7751   -1.6882   -2.2118 H      0
   -2.1199   -1.3013   -3.3444 H      0
   -4.4892    0.6188   -3.1611 H      0
   -2.7653    0.6424   -3.4446 H      0
   -3.5630    1.9588   -2.5798 H      0
   -5.5938    1.2672   -1.3654 H      0
   -5.9069    1.1206    0.3228 H      0
   -5.5266   -0.3189   -0.6356 H      0
  1  2  1
  2  3  1
  3  4  1
  1  4  1
  2  4  1
  4  5  1
  2  5  1
  5  6  1
  6  7  4
  7  8  4
  8  9  4
  9 10  4
 10 11  4
  6 11  4
  5 12  1
 12 13  4
 13 14  4
 14 15  4
 15 16  4
 16 17  4
 12 17  4
  4 18  1
 18 19  1
 18 20  4
  4 20  1
 20 21  1
 20 22  4
  4 22  1
 22 23  1
 22 24  4
  4 24  1
 24 25  1
 24 26  4
  4 26  1
 26 27  1
 26 28  4
  4 28  1
 18 28  4
 28 29  1
  2 30  1
 30 31  1
 30 32  4
  2 32  1
 32 33  1
 32 34  4
  2 34  1
 34 35  1
 34 36  4
  2 36  1
 36 37  1
 36 38  4
  2 38  1
 38 39  1
 38 40  4
  2 40  1
 30 40  4
 40 41  1
  7 42  1
  8 43  1
  9 44  1
 10 45  1
 11 46  1
 13 47  1
 14 48  1
 15 49  1
 16 50  1
 17 51  1
 19 52  1
 19 53  1
 19 54  1
 21 55  1
 21 56  1
 21 57  1
 23 58  1
 23 59  1
 23 60  1
 25 61  1
 25 62  1
 25 63  1
 27 64  1
 27 65  1
 27 66  1
 29 67  1
 29 68  1
 29 69  1
 31 70  1
 31 71  1
 31 72  1
 33 73  1
 33 74  1
 33 75  1
 35 76  1
 35 77  1
 35 78  1
 37 79  1
 37 80  1
 37 81  1
 39 82  1
 39 83  1
 39 84  1
 41 85  1
 41 86  1
 41 87  1
M  CHG  1   5   1
M  END
$$$$
