
     RDKit          3D

  0  0  0  0  0  0  0  0  0  0999 V3000
M  V30 BEGIN CTAB
M  V30 COUNTS 80 84 0 0 0
M  V30 BEGIN ATOM
M  V30 1 C 1.475210 0.444269 1.387372 0
M  V30 2 Ru 0.597289 -0.015568 -0.178030 0 VAL=6
M  V30 3 Cl 0.329959 -1.871906 0.630518 0
M  V30 4 Cl 0.941712 1.608944 -0.901478 0
M  V30 5 C -1.016696 0.426171 0.602365 0
M  V30 6 N -2.082162 -0.524599 0.370071 0
M  V30 7 C -2.196808 -1.937040 0.276429 0
M  V30 8 C -2.096565 -2.726018 -0.848472 0
M  V30 9 C -1.842743 -2.044563 -2.142068 0
M  V30 10 C -2.222618 -4.097501 -0.803636 0
M  V30 11 C -2.458295 -4.744660 0.390690 0
M  V30 12 C -2.604433 -6.220089 0.502557 0
M  V30 13 C -2.555044 -3.936661 1.503720 0
M  V30 14 C -2.434009 -2.543961 1.505551 0
M  V30 15 C -2.566867 -1.876271 2.814804 0
M  V30 16 C -3.318070 0.255960 0.201384 0
M  V30 17 C -2.863592 1.552047 0.839320 0
M  V30 18 N -1.549784 1.691304 0.184196 0
M  V30 19 C -1.232593 2.876081 -0.565166 0
M  V30 20 C -0.643982 3.817153 0.289203 0
M  V30 21 C -0.370598 3.658713 1.739710 0
M  V30 22 C -0.249488 5.059272 -0.221109 0
M  V30 23 C -0.434206 5.353433 -1.533243 0
M  V30 24 C -0.027322 6.666061 -2.113489 0
M  V30 25 C -1.006978 4.427060 -2.345987 0
M  V30 26 C -1.413699 3.189558 -1.896196 0
M  V30 27 C -2.049810 2.081474 -2.654666 0
M  V30 28 N 2.067259 -0.702897 -0.933788 0
M  V30 29 C 2.064431 -0.351653 -2.347552 0
M  V30 30 C 2.161190 -2.149795 -0.879054 0
M  V30 31 C 3.300461 -0.162269 -0.404736 0 CFG=2
M  V30 32 C 4.455080 -0.567431 -1.275281 0
M  V30 33 C 3.578100 -0.585425 0.992966 0
M  V30 34 C 4.723447 -1.261905 1.363140 0
M  V30 35 C 4.881590 -1.611012 2.698657 0
M  V30 36 C 3.915069 -1.291760 3.649948 0
M  V30 37 C 2.768598 -0.615296 3.282655 0
M  V30 38 C 2.618136 -0.273659 1.964668 0
M  V30 39 H 1.261513 1.271296 2.048397 0
M  V30 40 H -0.886816 0.405486 1.729265 0
M  V30 41 H -0.752232 -1.984611 -2.368337 0
M  V30 42 H -2.251811 -2.720295 -2.952330 0
M  V30 43 H -2.374234 -1.094793 -2.259314 0
M  V30 44 H -2.137897 -4.675046 -1.700926 0
M  V30 45 H -3.224025 -6.654819 -0.317395 0
M  V30 46 H -3.192599 -6.424982 1.430326 0
M  V30 47 H -1.636394 -6.733686 0.622848 0
M  V30 48 H -2.742295 -4.464865 2.444526 0
M  V30 49 H -3.201634 -2.485204 3.490546 0
M  V30 50 H -3.081958 -0.928966 2.683909 0
M  V30 51 H -1.579977 -1.773534 3.334996 0
M  V30 52 H -4.182442 -0.199200 0.699051 0
M  V30 53 H -3.570880 0.402107 -0.849484 0
M  V30 54 H -3.528124 2.400929 0.653101 0
M  V30 55 H -2.787916 1.434171 1.925175 0
M  V30 56 H -0.747959 4.531023 2.299549 0
M  V30 57 H 0.748471 3.696116 1.856400 0
M  V30 58 H -0.808437 2.769090 2.193775 0
M  V30 59 H 0.214245 5.834963 0.391579 0
M  V30 60 H 1.062328 6.789849 -2.107442 0
M  V30 61 H -0.473165 7.482364 -1.498729 0
M  V30 62 H -0.471122 6.794432 -3.126629 0
M  V30 63 H -1.200928 4.563569 -3.417514 0
M  V30 64 H -1.532665 1.127851 -2.517947 0
M  V30 65 H -1.868175 2.347076 -3.738390 0
M  V30 66 H -3.151915 2.049859 -2.550528 0
M  V30 67 H 0.990171 -0.240730 -2.669198 0
M  V30 68 H 2.486818 -1.124119 -3.000562 0
M  V30 69 H 2.509894 0.659558 -2.489598 0
M  V30 70 H 1.187287 -2.643164 -1.121419 0
M  V30 71 H 2.587866 -2.507542 0.075785 0
M  V30 72 H 2.888461 -2.477797 -1.678522 0
M  V30 73 H 3.218538 0.953055 -0.497131 0
M  V30 74 H 4.333575 -0.234119 -2.315828 0
M  V30 75 H 4.695126 -1.634055 -1.259183 0
M  V30 76 H 5.336505 0.025538 -0.891157 0
M  V30 77 H 5.468050 -1.506087 0.622523 0
M  V30 78 H 5.777450 -2.146545 3.019756 0
M  V30 79 H 4.006952 -1.549582 4.703474 0
M  V30 80 H 1.971183 -0.330153 3.956614 0
M  V30 END ATOM
M  V30 BEGIN BOND
M  V30 1 2 1 2
M  V30 2 1 2 3
M  V30 3 1 2 4
M  V30 4 1 2 5
M  V30 5 1 5 6
M  V30 6 1 6 7
M  V30 7 2 7 8
M  V30 8 1 8 9
M  V30 9 1 8 10
M  V30 10 2 10 11
M  V30 11 1 11 12
M  V30 12 1 11 13
M  V30 13 2 13 14
M  V30 14 1 14 15
M  V30 15 1 6 16
M  V30 16 1 16 17
M  V30 17 1 17 18
M  V30 18 1 18 19
M  V30 19 2 19 20
M  V30 20 1 20 21
M  V30 21 1 20 22
M  V30 22 2 22 23
M  V30 23 1 23 24
M  V30 24 1 23 25
M  V30 25 2 25 26
M  V30 26 1 26 27
M  V30 27 9 28 2
M  V30 28 1 28 29
M  V30 29 1 28 30
M  V30 30 1 28 31
M  V30 31 1 31 32
M  V30 32 1 31 33
M  V30 33 2 33 34
M  V30 34 1 34 35
M  V30 35 2 35 36
M  V30 36 1 36 37
M  V30 37 2 37 38
M  V30 38 1 38 1
M  V30 39 1 18 5
M  V30 40 1 26 19
M  V30 41 1 38 33
M  V30 42 1 14 7
M  V30 43 1 1 39
M  V30 44 1 5 40
M  V30 45 1 9 41
M  V30 46 1 9 42
M  V30 47 1 9 43
M  V30 48 1 10 44
M  V30 49 1 12 45
M  V30 50 1 12 46
M  V30 51 1 12 47
M  V30 52 1 13 48
M  V30 53 1 15 49
M  V30 54 1 15 50
M  V30 55 1 15 51
M  V30 56 1 16 52
M  V30 57 1 16 53
M  V30 58 1 17 54
M  V30 59 1 17 55
M  V30 60 1 21 56
M  V30 61 1 21 57
M  V30 62 1 21 58
M  V30 63 1 22 59
M  V30 64 1 24 60
M  V30 65 1 24 61
M  V30 66 1 24 62
M  V30 67 1 25 63
M  V30 68 1 27 64
M  V30 69 1 27 65
M  V30 70 1 27 66
M  V30 71 1 29 67
M  V30 72 1 29 68
M  V30 73 1 29 69
M  V30 74 1 30 70
M  V30 75 1 30 71
M  V30 76 1 30 72
M  V30 77 1 31 73 CFG=1
M  V30 78 1 32 74
M  V30 79 1 32 75
M  V30 80 1 32 76
M  V30 81 1 34 77
M  V30 82 1 35 78
M  V30 83 1 36 79
M  V30 84 1 37 80
M  V30 END BOND
M  V30 END CTAB
M  END
