
 OpenBabel09252516213D

 44 49  0  0  0  0  0  0  0  0999 V2000
    0.9122    0.0452   -0.0159 C   0  0  0  0  0  0  0  0  0  0  0  0
    0.4055    0.4479   -1.3912 C   0  0  0  0  0  0  0  0  0  0  0  0
   -0.7910    2.8651   -2.6477 C   0  0  0  0  0  0  0  0  0  0  0  0
    0.6042    1.2039   -2.6993 Ir  0  0  0  0  0  0  0  0  0  0  0  0
   -1.8709   -0.0535   -2.9311 C   0  0  0  0  0  0  0  0  0  0  0  0
   -0.6664    0.3928   -2.4829 C   0  0  0  0  0  0  0  0  0  0  0  0
    1.6488    0.7933   -3.7045 C   0  0  0  0  0  0  0  0  0  0  0  0
    2.1259   -0.4249   -4.1196 C   0  0  0  0  0  0  0  0  0  0  0  0
    1.5650   -1.7058   -3.5237 C   0  0  0  0  0  0  0  0  0  0  0  0
    2.1352    2.2060   -4.3732 P   0  0  0  0  0  4  0  0  0  0  0  0
    2.8003    3.7827   -3.7247 C   0  0  0  0  0  0  0  0  0  0  0  0
    3.4663    3.5524   -2.5967 F   0  0  0  0  0  0  0  0  0  0  0  0
    3.6214    4.3201   -4.6224 F   0  0  0  0  0  0  0  0  0  0  0  0
    1.7967    4.6215   -3.4837 F   0  0  0  0  0  0  0  0  0  0  0  0
    3.5161    1.0519   -4.7048 C   0  0  0  0  0  0  0  0  0  0  0  0
    4.1820    0.8215   -3.5768 F   0  0  0  0  0  0  0  0  0  0  0  0
    3.0327   -0.0940   -5.1762 F   0  0  0  0  0  0  0  0  0  0  0  0
    4.3372    1.5893   -5.6025 F   0  0  0  0  0  0  0  0  0  0  0  0
    3.1293   -0.4851   -5.0919 C   0  0  0  0  0  0  0  0  0  0  0  0
    3.6279    0.6996   -5.6402 C   0  0  0  0  0  0  0  0  0  0  0  0
    3.1386    1.9157   -5.2228 C   0  0  0  0  0  0  0  0  0  0  0  0
    2.1423    1.9779   -4.2478 C   0  0  0  0  0  0  0  0  0  0  0  0
    1.5004    3.0753   -3.6733 C   0  0  0  0  0  0  0  0  0  0  0  0
    0.5853    2.7096   -2.7567 P   0  0  0  0  0  4  0  0  0  0  0  0
    0.9689    3.4341   -1.1206 C   0  0  0  0  0  0  0  0  0  0  0  0
    0.9584    4.7610   -1.2098 F   0  0  0  0  0  0  0  0  0  0  0  0
    0.0555    3.0419   -0.2369 F   0  0  0  0  0  0  0  0  0  0  0  0
    2.1716    3.0258   -0.7260 F   0  0  0  0  0  0  0  0  0  0  0  0
   -1.0742    3.3004   -3.2529 C   0  0  0  0  0  0  0  0  0  0  0  0
   -1.3772    2.8144   -4.4532 F   0  0  0  0  0  0  0  0  0  0  0  0
   -1.9754    2.8865   -2.3666 F   0  0  0  0  0  0  0  0  0  0  0  0
   -1.0760    4.6295   -3.2993 F   0  0  0  0  0  0  0  0  0  0  0  0
    0.5555   -0.9350    0.2227 H   0  0  0  0  0  0  0  0  0  0  0  0
    0.5556    0.7419    0.7137 H   0  0  0  0  0  0  0  0  0  0  0  0
    1.9822    0.0452   -0.0159 H   0  0  0  0  0  0  0  0  0  0  0  0
   -0.8385    3.5495   -3.4688 H   0  0  0  0  0  0  0  0  0  0  0  0
   -2.2199    0.2321   -3.9014 H   0  0  0  0  0  0  0  0  0  0  0  0
    0.5144   -1.7600   -3.7196 H   0  0  0  0  0  0  0  0  0  0  0  0
    2.0541   -2.5487   -3.9654 H   0  0  0  0  0  0  0  0  0  0  0  0
    3.5123   -1.4310   -5.4136 H   0  0  0  0  0  0  0  0  0  0  0  0
    4.3930    0.6607   -6.3872 H   0  0  0  0  0  0  0  0  0  0  0  0
    3.5239    2.8188   -5.6481 H   0  0  0  0  0  0  0  0  0  0  0  0
    2.2422    3.6659   -3.1776 H   0  0  0  0  0  0  0  0  0  0  0  0
    1.0107    3.6307   -4.4458 H   0  0  0  0  0  0  0  0  0  0  0  0
  1  2  1  0  0  0  0
  1 33  1  0  0  0  0
  1 34  1  0  0  0  0
  1 35  1  0  0  0  0
  2  3  2  0  0  0  0
  2  4  1  0  0  0  0
  2  6  1  0  0  0  0
  3  4  1  0  0  0  0
  3 36  1  0  0  0  0
  4  5  1  0  0  0  0
  4  6  1  0  0  0  0
  4  7  1  0  0  0  0
  4 10  1  0  0  0  0
  4 24  1  0  0  0  0
  5  6  2  0  0  0  0
  5 37  1  0  0  0  0
  7  8  1  0  0  0  0
  7 22  2  0  0  0  0
  8  9  1  0  0  0  0
  8 19  2  0  0  0  0
  9 10  1  0  0  0  0
  9 38  1  0  0  0  0
  9 39  1  0  0  0  0
 10 11  1  0  0  0  0
 10 15  1  0  0  0  0
 11 12  1  0  0  0  0
 11 13  1  0  0  0  0
 11 14  1  0  0  0  0
 15 16  1  0  0  0  0
 15 17  1  0  0  0  0
 15 18  1  0  0  0  0
 19 20  1  0  0  0  0
 19 40  1  0  0  0  0
 20 21  2  0  0  0  0
 20 41  1  0  0  0  0
 21 22  1  0  0  0  0
 21 42  1  0  0  0  0
 22 23  1  0  0  0  0
 23 24  1  0  0  0  0
 23 43  1  0  0  0  0
 23 44  1  0  0  0  0
 24 25  1  0  0  0  0
 24 29  1  0  0  0  0
 25 26  1  0  0  0  0
 25 27  1  0  0  0  0
 25 28  1  0  0  0  0
 29 30  1  0  0  0  0
 29 31  1  0  0  0  0
 29 32  1  0  0  0  0
M  END
$$$$
