
  --CCDC--092525    3D                              

 26 29  0  0  0  0  0  0  0  0999 V2000
    1.3799   -2.1331    2.2801 H      0
    0.5242   -1.7872    1.7087 C      0
    0.9035   -1.1453    0.5014 C      0
    2.3324   -1.0224    0.1712 C      0
    2.6827   -0.4778   -0.8660 O      0
    3.3642   -1.5121    1.1434 C      0
    3.1396   -1.1523    2.1457 H      0
    4.3517   -1.1467    0.8721 H      0
    3.3977   -2.5983    1.1751 H      0
   -0.1312   -0.4709   -0.3865 C      0
   -0.3380   -0.4718   -1.4676 H      0
   -0.9254   -0.2385    0.8625 C      0
   -0.9312   -0.7653    1.9439 H      0
   -2.3618   -0.7297    1.0071 C      0
   -2.9405   -0.8555    0.0610 H      0
   -2.1073   -1.9478    1.8925 C      0
   -2.5545   -2.9197    1.5817 H      0
   -0.7138   -2.0830    2.3681 N      0
   -0.6148   -2.5588    3.2663 H      0
   -1.2308   -2.1921    0.0311 Fe     0
   -0.0004   -3.1266   -1.5372 C      0
    0.6365   -3.6104   -2.3491 O      0
   -2.6517   -3.1424   -1.3548 C      0
   -3.3933   -3.6413   -2.0638 O      0
   -0.6644   -4.2560    0.5613 C      0
   -0.3657   -5.3201    0.8424 O      0
  1  2  1
  2  3  2
  3  4  1
  4  5  2
  4  6  1
  6  7  1
  6  8  1
  6  9  1
  3 10  1
 10 11  1
 10 12  2
 12 13  1
 12 14  1
 14 15  1
 14 16  2
 16 17  1
 16 18  1
  2 18  1
 18 19  1
 16 20  1
 14 20  1
 12 20  1
 10 20  1
 20 21  1
 21 22  3
 20 23  1
 23 24  3
 20 25  1
 25 26  3
M  END
$$$$
