
  --CCDC--092525    3D                              

 53 52  0  0  0  0  0  0  0  0999 V2000
    0.0248   -0.1234    0.0769 C      0
    1.9763   -0.0438   -0.6899 Rh     0
    4.6836   -0.3068   -1.4384 I      0
    2.8296    1.3397    1.6170 I      0
    2.3260   -1.8827    0.2609 C      0
    2.5158   -2.8810    0.7770 O      0
    1.2230   -1.2306   -2.7327 P      0
   -0.5078   -0.8811   -3.1428 C      0
   -1.0838   -1.8726   -4.1452 C      0
    1.3206   -3.0107   -2.4144 C      0
    0.2419   -3.5182   -1.4662 C      0
    2.3587   -0.9145   -4.1080 C      0
    2.0576   -1.7526   -5.3386 C      0
    1.6053    2.1673   -1.8183 P      0
   -0.0243    2.5762   -2.5227 C      0
   -1.2857    2.4401   -1.6823 C      0
    2.6053    2.5732   -3.2789 C      0
    4.1043    2.3606   -3.2022 C      0
    2.0036    3.5403   -0.7035 C      0
    0.9444    3.7999    0.3607 C      0
   -0.4822    0.8137   -0.0833 H      0
    0.0769   -0.2971    1.1488 H      0
   -0.5317   -0.9331   -0.3886 H      0
   -0.6024    0.1322   -3.5456 H      0
   -1.1063   -0.9368   -2.2235 H      0
   -2.1549   -1.7225   -4.2575 H      0
   -0.9143   -2.8975   -3.8231 H      0
   -0.6388   -1.7582   -5.1271 H      0
    1.2238   -3.5516   -3.3637 H      0
    2.3113   -3.2435   -2.0068 H      0
    0.5501   -4.4570   -1.0135 H      0
   -0.6932   -3.6875   -1.9916 H      0
    0.0339   -2.8191   -0.6635 H      0
    3.3791   -1.1478   -3.7832 H      0
    2.3305    0.1403   -4.3915 H      0
    1.1695   -1.3962   -5.8486 H      0
    1.9140   -2.7973   -5.0744 H      0
    2.8754   -1.6949   -6.0511 H      0
   -0.1643    2.0139   -3.4501 H      0
    0.0273    3.6285   -2.8285 H      0
   -1.7193    1.4493   -1.7943 H      0
   -2.0320    3.1668   -1.9959 H      0
   -1.0931    2.6111   -0.6286 H      0
    2.4458    3.6400   -3.4786 H      0
    2.2106    2.0504   -4.1541 H      0
    4.3611    1.4038   -3.6428 H      0
    4.4609    2.3937   -2.1765 H      0
    4.6311    3.1229   -3.7691 H      0
    2.0970    4.4582   -1.2985 H      0
    2.9848    3.3662   -0.2474 H      0
    0.4879    2.8735    0.7019 H      0
    0.1507    4.4299   -0.0366 H      0
    1.3737    4.3081    1.2230 H      0
  1  2  1
  2  3  1
  2  4  1
  2  5  1
  5  6  3
  2  7  1
  7  8  1
  8  9  1
  7 10  1
 10 11  1
  7 12  1
 12 13  1
  2 14  1
 14 15  1
 15 16  1
 14 17  1
 17 18  1
 14 19  1
 19 20  1
  1 21  1
  1 22  1
  1 23  1
  8 24  1
  8 25  1
  9 26  1
  9 27  1
  9 28  1
 10 29  1
 10 30  1
 11 31  1
 11 32  1
 11 33  1
 12 34  1
 12 35  1
 13 36  1
 13 37  1
 13 38  1
 15 39  1
 15 40  1
 16 41  1
 16 42  1
 16 43  1
 17 44  1
 17 45  1
 18 46  1
 18 47  1
 18 48  1
 19 49  1
 19 50  1
 20 51  1
 20 52  1
 20 53  1
M  END
$$$$
