
     RDKit          3D

 64 65  0  0  0  0  0  0  0  0999 V2000
    3.5543   -0.8414   -1.5035 C   0  0  0  0  0  0  0  0  0  0  0  0
    2.4133   -0.5676   -0.5968 C   0  0  0  0  0  0  0  0  0  0  0  0
    1.2089   -0.4935   -1.1809 N   0  0  0  0  0  0  0  0  0  0  0  0
    0.2530   -0.2417   -0.2623 N   0  0  0  0  0  0  0  0  0  0  0  0
   -1.5413   -0.0480   -0.6700 Pt  0  0  0  0  0  6  0  0  0  0  0  0
   -0.9050    1.0375   -2.1114 C   0  0  0  0  0  0  0  0  0  0  0  0
   -1.2813   -1.4840   -1.9340 C   0  0  0  0  0  0  0  0  0  0  0  0
   -3.2188    0.1008   -1.4808 C   0  0  0  0  0  0  0  0  0  0  0  0
   -1.8481    1.4659    0.3823 P   0  0  0  0  0  5  0  0  0  0  0  0
   -2.1620    2.9516   -0.5995 C   0  0  0  0  0  0  0  0  0  0  0  0
   -3.5757    1.4840    1.0138 C   0  0  0  0  0  0  0  0  0  0  0  0
   -1.1098    1.6648    1.9597 C   0  0  0  0  0  0  0  0  0  0  0  0
   -2.0219   -1.4811    0.5288 P   0  0  0  0  0  5  0  0  0  0  0  0
   -0.7087   -2.7961    0.3331 C   0  0  0  0  0  0  0  0  0  0  0  0
   -1.7882   -1.2689    2.1984 C   0  0  0  0  0  0  0  0  0  0  0  0
   -3.3857   -2.5418   -0.0588 C   0  0  0  0  0  0  0  0  0  0  0  0
    0.8815   -0.1668    0.8603 N   0  0  0  0  0  0  0  0  0  0  0  0
    2.2012   -0.3558    0.7263 C   0  0  0  0  0  0  0  0  0  0  0  0
    3.0064   -0.2890    1.9508 C   0  0  0  0  0  0  0  0  0  0  0  0
    4.0830    0.7706    1.8143 C   0  0  0  0  0  0  0  0  0  0  0  0
    5.0165    0.4074    0.6781 C   0  0  0  0  0  0  0  0  0  0  0  0
    4.6179    1.2036   -0.5251 C   0  0  0  0  0  0  0  0  0  0  0  0
    4.4355    0.3374   -1.7501 C   0  0  0  0  0  0  0  0  0  0  0  0
    4.1439   -1.7289   -1.1574 H   0  0  0  0  0  0  0  0  0  0  0  0
    3.1772   -1.1635   -2.5152 H   0  0  0  0  0  0  0  0  0  0  0  0
   -1.6970    1.4491   -2.7141 H   0  0  0  0  0  0  0  0  0  0  0  0
   -0.1987    1.7621   -1.6408 H   0  0  0  0  0  0  0  0  0  0  0  0
   -0.2447    0.4673   -2.8068 H   0  0  0  0  0  0  0  0  0  0  0  0
   -1.4557   -1.0587   -2.9757 H   0  0  0  0  0  0  0  0  0  0  0  0
   -0.2434   -1.7935   -1.9690 H   0  0  0  0  0  0  0  0  0  0  0  0
   -2.0644   -2.2249   -1.8533 H   0  0  0  0  0  0  0  0  0  0  0  0
   -3.3976    1.1695   -1.7202 H   0  0  0  0  0  0  0  0  0  0  0  0
   -3.3078   -0.4225   -2.4517 H   0  0  0  0  0  0  0  0  0  0  0  0
   -3.9940   -0.2820   -0.8377 H   0  0  0  0  0  0  0  0  0  0  0  0
   -0.6306    1.9156    0.0972 H   0  0  0  0  0  0  0  0  0  0  0  0
   -3.2312    3.0357   -0.9919 H   0  0  0  0  0  0  0  0  0  0  0  0
   -2.1643    3.8749    0.0599 H   0  0  0  0  0  0  0  0  0  0  0  0
   -1.6866    3.1206   -1.5796 H   0  0  0  0  0  0  0  0  0  0  0  0
   -3.6284    0.7942    1.8090 H   0  0  0  0  0  0  0  0  0  0  0  0
   -4.1766    1.4078    0.1459 H   0  0  0  0  0  0  0  0  0  0  0  0
   -3.7893    2.4873    1.5052 H   0  0  0  0  0  0  0  0  0  0  0  0
   -0.3162    1.0589    2.3650 H   0  0  0  0  0  0  0  0  0  0  0  0
   -0.7667    2.7411    2.2110 H   0  0  0  0  0  0  0  0  0  0  0  0
   -1.8091    1.6214    2.8754 H   0  0  0  0  0  0  0  0  0  0  0  0
   -3.0174   -0.7738    0.7943 H   0  0  0  0  0  0  0  0  0  0  0  0
   -0.8343   -3.1618   -0.6455 H   0  0  0  0  0  0  0  0  0  0  0  0
    0.2056   -2.4122    0.7183 H   0  0  0  0  0  0  0  0  0  0  0  0
   -0.9748   -3.6226    1.0377 H   0  0  0  0  0  0  0  0  0  0  0  0
   -2.1599   -0.6339    2.9830 H   0  0  0  0  0  0  0  0  0  0  0  0
   -2.0166   -2.3141    2.6436 H   0  0  0  0  0  0  0  0  0  0  0  0
   -0.6747   -1.2470    2.4511 H   0  0  0  0  0  0  0  0  0  0  0  0
   -3.8870   -2.2395   -0.9703 H   0  0  0  0  0  0  0  0  0  0  0  0
   -3.0355   -3.5733   -0.4101 H   0  0  0  0  0  0  0  0  0  0  0  0
   -4.0681   -2.9325    0.7574 H   0  0  0  0  0  0  0  0  0  0  0  0
    3.5612   -1.2457    2.1304 H   0  0  0  0  0  0  0  0  0  0  0  0
    2.3929   -0.0702    2.8266 H   0  0  0  0  0  0  0  0  0  0  0  0
    3.5698    1.7336    1.6602 H   0  0  0  0  0  0  0  0  0  0  0  0
    4.6245    0.8441    2.7774 H   0  0  0  0  0  0  0  0  0  0  0  0
    6.0799    0.5962    0.9769 H   0  0  0  0  0  0  0  0  0  0  0  0
    4.9967   -0.6891    0.4475 H   0  0  0  0  0  0  0  0  0  0  0  0
    5.4475    1.9039   -0.7555 H   0  0  0  0  0  0  0  0  0  0  0  0
    3.7044    1.8011   -0.3690 H   0  0  0  0  0  0  0  0  0  0  0  0
    4.0359    1.0057   -2.5557 H   0  0  0  0  0  0  0  0  0  0  0  0
    5.4058   -0.0486   -2.1258 H   0  0  0  0  0  0  0  0  0  0  0  0
  1  2  1  0
  2  3  2  0
  3  4  1  0
  4  5  1  0
  5  6  1  0
  5  7  1  0
  5  8  1  0
  5  9  1  0
  9 10  1  0
  9 11  1  0
  9 12  1  0
  5 13  1  0
 13 14  1  0
 13 15  1  0
 13 16  1  0
  4 17  1  0
 17 18  2  0
 18 19  1  0
 19 20  1  0
 20 21  1  0
 21 22  1  0
 22 23  1  0
 23  1  1  0
 18  2  1  0
  1 24  1  0
  1 25  1  0
  6 26  1  0
  6 27  1  0
  6 28  1  0
  7 29  1  0
  7 30  1  0
  7 31  1  0
  8 32  1  0
  8 33  1  0
  8 34  1  0
  9 35  1  0
 10 36  1  0
 10 37  1  0
 10 38  1  0
 11 39  1  0
 11 40  1  0
 11 41  1  0
 12 42  1  0
 12 43  1  0
 12 44  1  0
 13 45  1  0
 14 46  1  0
 14 47  1  0
 14 48  1  0
 15 49  1  0
 15 50  1  0
 15 51  1  0
 16 52  1  0
 16 53  1  0
 16 54  1  0
 19 55  1  0
 19 56  1  0
 20 57  1  0
 20 58  1  0
 21 59  1  0
 21 60  1  0
 22 61  1  0
 22 62  1  0
 23 63  1  0
 23 64  1  0
M  END
