
  --CCDC--092525    3D                              

 39 44  0  0  0  0  0  0  0  0999 V2000
    0.3758   -0.4998    0.5577 C      0
    1.7985   -0.0981   -0.5861 Si     0
    2.8710   -1.6297   -0.6207 C      0
    1.0477    0.0402   -2.2926 C      0
    2.6989    1.3896   -0.0848 C      0
    3.7759    1.8748   -0.8258 C      0
    5.3518    2.6648   -1.9119 Cr     0
    3.5878    2.4523   -2.9739 C      0
    2.6199    2.3348   -3.5634 O      0
    4.8567    0.7161   -2.4018 C      0
    4.5841   -0.3570   -2.6716 O      0
    7.0474    2.0953   -1.3507 C      0
    6.2698    2.9396   -0.3007 C      0
    5.3977    4.1447   -0.7621 C      0
    5.3038    4.5039   -2.2722 C      0
    6.0828    3.6591   -3.3233 C      0
    6.9535    2.4558   -2.8627 C      0
    2.2485    2.2672    1.4296 Si     0
    2.3521    1.2013    2.9618 C      0
    0.4867    2.8884    1.3563 C      0
    3.3103    3.7717    1.7537 C      0
   -0.3384    0.3201    0.5884 H      0
    0.7323   -0.6797    1.5700 H      0
   -0.1505   -1.3895    0.2201 H      0
    3.9055   -1.3868   -0.3889 H      0
    2.8459   -2.0932   -1.6043 H      0
    2.5245   -2.3599    0.1073 H      0
    0.4057   -0.8127   -2.5024 H      0
    1.8242    0.0755   -3.0536 H      0
    0.4483    0.9442   -2.3788 H      0
    1.5565    0.4593    2.9702 H      0
    2.2601    1.8072    3.8606 H      0
    3.3039    0.6774    3.0068 H      0
   -0.2154    2.0708    1.5059 H      0
    0.2783    3.3390    0.3883 H      0
    0.3061    3.6362    2.1252 H      0
    4.3478    3.4863    1.9138 H      0
    2.9644    4.3038    2.6373 H      0
    3.2735    4.4579    0.9099 H      0
  1  2  1
  2  3  1
  2  4  1
  2  5  1
  5  6  4
  6  7  4
  7  8  1
  8  9  3
  7 10  1
 10 11  3
  7 12  1
 12 13  4
  7 13  1
 13 14  4
  7 14  1
 14 15  4
  7 15  1
 15 16  4
  7 16  1
 16 17  4
  7 17  1
 12 17  4
  5 18  1
 18 19  1
 18 20  1
 18 21  1
  1 22  1
  1 23  1
  1 24  1
  3 25  1
  3 26  1
  3 27  1
  4 28  1
  4 29  1
  4 30  1
 19 31  1
 19 32  1
 19 33  1
 20 34  1
 20 35  1
 20 36  1
 21 37  1
 21 38  1
 21 39  1
M  END
$$$$
