
     RDKit          3D

  0  0  0  0  0  0  0  0  0  0999 V3000
M  V30 BEGIN CTAB
M  V30 COUNTS 79 83 0 0 0
M  V30 BEGIN ATOM
M  V30 1 Cl 0.989580 -0.640804 3.230256 0
M  V30 2 Ru 0.779569 -0.012679 0.796096 0 VAL=6
M  V30 3 C 1.919361 1.608159 0.605924 0
M  V30 4 C 3.383746 1.378076 0.646728 0
M  V30 5 C 4.280372 2.141033 1.406711 0
M  V30 6 C 5.624747 1.843905 1.394446 0
M  V30 7 C 6.061762 0.788479 0.623848 0
M  V30 8 C 5.144814 0.083829 -0.093377 0
M  V30 9 C 3.769461 0.315025 -0.139085 0
M  V30 10 C 2.844183 -0.491645 -0.953894 0
M  V30 11 C 3.695229 -1.577497 -1.603054 0
M  V30 12 N 1.789903 -1.148334 -0.263017 0
M  V30 13 C 2.307203 -2.295616 0.393307 0
M  V30 14 C 0.847298 -1.618414 -1.249493 0
M  V30 15 Cl 0.644744 0.239586 3.003253 0
M  V30 16 C -1.126129 0.166354 1.114249 0 RAD=2 VAL=3
M  V30 17 N -1.687985 1.310866 0.501175 0
M  V30 18 C -3.102897 1.030790 0.601011 0
M  V30 19 C -3.139014 -0.330070 1.247037 0
M  V30 20 N -1.902916 -0.945812 0.728781 0
M  V30 21 C -2.086032 -2.268720 0.166744 0
M  V30 22 C -2.428042 -2.622677 -1.115678 0
M  V30 23 C -2.709657 -1.572410 -2.099152 0
M  V30 24 C -2.526598 -3.945526 -1.476824 0
M  V30 25 C -2.274283 -4.897831 -0.519346 0
M  V30 26 C -2.394711 -6.309594 -0.960916 0
M  V30 27 C -1.935772 -4.568464 0.753084 0
M  V30 28 C -1.832294 -3.223674 1.131198 0
M  V30 29 C -1.454500 -3.049767 2.551679 0
M  V30 30 C -1.427820 2.568517 -0.103650 0
M  V30 31 C -1.231191 3.076846 -1.361664 0
M  V30 32 C -1.341784 1.986143 -2.361850 0
M  V30 33 C -0.980578 4.408167 -1.587399 0
M  V30 34 C -0.911823 5.318121 -0.555689 0
M  V30 35 C -0.636023 6.740481 -0.881602 0
M  V30 36 C -1.106834 4.842763 0.745441 0
M  V30 37 C -1.362090 3.481093 0.965843 0
M  V30 38 C -1.526969 3.260072 2.429188 0
M  V30 39 H 1.837397 2.682605 0.463803 0
M  V30 40 H 3.796741 2.938433 1.963131 0
M  V30 41 H 6.201111 2.507568 2.021474 0
M  V30 42 H 7.104673 0.596031 0.645225 0
M  V30 43 H 5.585154 -0.721529 -0.664990 0
M  V30 44 H 2.463894 0.119184 -1.819942 0
M  V30 45 H 3.146741 -2.290275 -2.208469 0
M  V30 46 H 4.189348 -2.177623 -0.797305 0
M  V30 47 H 4.408816 -1.068280 -2.277609 0
M  V30 48 H 3.213010 -2.038851 0.987509 0
M  V30 49 H 1.581068 -2.674841 1.170858 0
M  V30 50 H 2.435149 -3.105212 -0.325581 0
M  V30 51 H 0.479202 -2.647585 -1.075888 0
M  V30 52 H 1.260889 -1.644109 -2.290539 0
M  V30 53 H -0.036799 -0.963808 -1.337696 0
M  V30 54 H -3.638341 1.792844 1.206639 0
M  V30 55 H -3.531142 0.969586 -0.393643 0
M  V30 56 H -2.968142 -0.195301 2.345472 0
M  V30 57 H -4.044947 -0.889014 1.028618 0
M  V30 58 H -3.764377 -1.550650 -2.435493 0
M  V30 59 H -2.089070 -1.787707 -3.017465 0
M  V30 60 H -2.357975 -0.607189 -1.709541 0
M  V30 61 H -2.798483 -4.163048 -2.499292 0
M  V30 62 H -2.331496 -7.017022 -0.118354 0
M  V30 63 H -3.398553 -6.385321 -1.472268 0
M  V30 64 H -1.614413 -6.494272 -1.714025 0
M  V30 65 H -1.756857 -5.412341 1.433265 0
M  V30 66 H -1.628524 -2.063934 2.971522 0
M  V30 67 H -0.361846 -3.244264 2.599563 0
M  V30 68 H -1.911290 -3.861251 3.184093 0
M  V30 69 H -0.659902 1.154476 -2.153647 0
M  V30 70 H -1.077328 2.355319 -3.380880 0
M  V30 71 H -2.395839 1.656237 -2.452967 0
M  V30 72 H -0.850887 4.633070 -2.635155 0
M  V30 73 H 0.184024 6.863302 -1.614394 0
M  V30 74 H -1.520960 7.266754 -1.293762 0
M  V30 75 H -0.398373 7.248917 0.076004 0
M  V30 76 H -1.031903 5.633208 1.468353 0
M  V30 77 H -1.743873 2.190902 2.621535 0
M  V30 78 H -0.574655 3.460037 2.973232 0
M  V30 79 H -2.357271 3.866183 2.818301 0
M  V30 END ATOM
M  V30 BEGIN BOND
M  V30 1 1 1 2
M  V30 2 2 2 3
M  V30 3 1 3 4
M  V30 4 2 4 5
M  V30 5 1 5 6
M  V30 6 2 6 7
M  V30 7 1 7 8
M  V30 8 2 8 9
M  V30 9 1 9 10
M  V30 10 1 10 11
M  V30 11 1 10 12
M  V30 12 1 12 13
M  V30 13 1 12 14
M  V30 14 1 2 15
M  V30 15 1 2 16
M  V30 16 1 16 17
M  V30 17 1 17 18
M  V30 18 1 18 19
M  V30 19 1 19 20
M  V30 20 1 20 21
M  V30 21 2 21 22
M  V30 22 1 22 23
M  V30 23 1 22 24
M  V30 24 2 24 25
M  V30 25 1 25 26
M  V30 26 1 25 27
M  V30 27 2 27 28
M  V30 28 1 28 29
M  V30 29 1 17 30
M  V30 30 2 30 31
M  V30 31 1 31 32
M  V30 32 1 31 33
M  V30 33 2 33 34
M  V30 34 1 34 35
M  V30 35 1 34 36
M  V30 36 2 36 37
M  V30 37 1 37 38
M  V30 38 9 12 2
M  V30 39 1 20 16
M  V30 40 1 28 21
M  V30 41 1 37 30
M  V30 42 1 9 4
M  V30 43 1 3 39
M  V30 44 1 5 40
M  V30 45 1 6 41
M  V30 46 1 7 42
M  V30 47 1 8 43
M  V30 48 1 10 44
M  V30 49 1 11 45
M  V30 50 1 11 46
M  V30 51 1 11 47
M  V30 52 1 13 48
M  V30 53 1 13 49
M  V30 54 1 13 50
M  V30 55 1 14 51
M  V30 56 1 14 52
M  V30 57 1 14 53
M  V30 58 1 18 54
M  V30 59 1 18 55
M  V30 60 1 19 56
M  V30 61 1 19 57
M  V30 62 1 23 58
M  V30 63 1 23 59
M  V30 64 1 23 60
M  V30 65 1 24 61
M  V30 66 1 26 62
M  V30 67 1 26 63
M  V30 68 1 26 64
M  V30 69 1 27 65
M  V30 70 1 29 66
M  V30 71 1 29 67
M  V30 72 1 29 68
M  V30 73 1 32 69
M  V30 74 1 32 70
M  V30 75 1 32 71
M  V30 76 1 33 72
M  V30 77 1 35 73
M  V30 78 1 35 74
M  V30 79 1 35 75
M  V30 80 1 36 76
M  V30 81 1 38 77
M  V30 82 1 38 78
M  V30 83 1 38 79
M  V30 END BOND
M  V30 END CTAB
M  END
