
 OpenBabel09252512563D

 46 54  0  0  0  0  0  0  0  0999 V2000
    0.9856    0.0314   -0.0938 Cl  0  0  0  0  0  0  0  0  0  0  0  0
    3.4156    0.0314   -0.0938 Ir  0  0  0  0  0  0  0  0  0  0  0  0
    2.5487    0.0936   -1.2070 C   0  0  0  0  0  0  0  0  0  0  0  0
    2.1457    1.2839   -1.7158 C   0  0  0  0  0  0  0  0  0  0  0  0
    2.5795    2.5080   -1.1613 C   0  0  0  0  0  0  0  0  0  0  0  0
    2.1577    3.7318   -1.6989 C   0  0  0  0  0  0  0  0  0  0  0  0
    2.5876    4.9220   -1.1525 C   0  0  0  0  0  0  0  0  0  0  0  0
    3.4457    4.9463   -0.0603 C   0  0  0  0  0  0  0  0  0  0  0  0
    3.8920    3.7291    0.5086 C   0  0  0  0  0  0  0  0  0  0  0  0
    4.7560    3.7066    1.6100 C   0  0  0  0  0  0  0  0  0  0  0  0
    5.1711    2.5027    2.1407 C   0  0  0  0  0  0  0  0  0  0  0  0
    4.7476    1.2989    1.6025 C   0  0  0  0  0  0  0  0  0  0  0  0
    3.8886    1.2874    0.5075 C   0  0  0  0  0  0  0  0  0  0  0  0
    3.4532    2.5080   -0.0491 C   0  0  0  0  0  0  0  0  0  0  0  0
    2.9538   -1.4225    1.4495 C   0  0  0  0  0  0  0  0  0  0  0  0
    3.9693   -2.5420    1.2885 C   0  0  0  0  0  0  0  0  0  0  0  0
    2.8742   -1.2068    2.7725 C   0  0  0  0  0  0  0  0  0  0  0  0
    1.6553   -0.3470    3.0651 C   0  0  0  0  0  0  0  0  0  0  0  0
    2.7643   -2.3679    3.4381 C   0  0  0  0  0  0  0  0  0  0  0  0
    2.6613   -2.5171    4.9472 C   0  0  0  0  0  0  0  0  0  0  0  0
    2.7605   -3.3601    2.5637 C   0  0  0  0  0  0  0  0  0  0  0  0
    2.6457   -4.8456    2.8645 C   0  0  0  0  0  0  0  0  0  0  0  0
    2.8916   -2.7246    1.2269 C   0  0  0  0  0  0  0  0  0  0  0  0
    2.9435   -3.4271   -0.1201 C   0  0  0  0  0  0  0  0  0  0  0  0
    2.2040   -0.8142   -1.6565 H   0  0  0  0  0  0  0  0  0  0  0  0
    1.4966    3.7422   -2.5403 H   0  0  0  0  0  0  0  0  0  0  0  0
    2.2538    5.8453   -1.5780 H   0  0  0  0  0  0  0  0  0  0  0  0
    3.7679    5.8808    0.3492 H   0  0  0  0  0  0  0  0  0  0  0  0
    5.0953    4.6253    2.0412 H   0  0  0  0  0  0  0  0  0  0  0  0
    5.8315    2.4989    2.9825 H   0  0  0  0  0  0  0  0  0  0  0  0
    5.0814    0.3762    2.0293 H   0  0  0  0  0  0  0  0  0  0  0  0
    3.8754   -2.9712    0.3128 H   0  0  0  0  0  0  0  0  0  0  0  0
    4.9566   -2.1484    1.4114 H   0  0  0  0  0  0  0  0  0  0  0  0
    3.7908   -3.2946    2.0279 H   0  0  0  0  0  0  0  0  0  0  0  0
    0.7720   -0.8609    2.7481 H   0  0  0  0  0  0  0  0  0  0  0  0
    1.5984   -0.1549    4.1161 H   0  0  0  0  0  0  0  0  0  0  0  0
    1.7376    0.5799    2.5370 H   0  0  0  0  0  0  0  0  0  0  0  0
    3.5339   -2.1023    5.4071 H   0  0  0  0  0  0  0  0  0  0  0  0
    1.7930   -1.9998    5.2984 H   0  0  0  0  0  0  0  0  0  0  0  0
    2.5846   -3.5543    5.1987 H   0  0  0  0  0  0  0  0  0  0  0  0
    3.4616   -5.1475    3.4873 H   0  0  0  0  0  0  0  0  0  0  0  0
    1.7218   -5.0369    3.3693 H   0  0  0  0  0  0  0  0  0  0  0  0
    2.6726   -5.3981    1.9486 H   0  0  0  0  0  0  0  0  0  0  0  0
    3.7830   -4.0902   -0.1444 H   0  0  0  0  0  0  0  0  0  0  0  0
    2.0430   -3.9863   -0.2657 H   0  0  0  0  0  0  0  0  0  0  0  0
    3.0412   -2.6993   -0.8984 H   0  0  0  0  0  0  0  0  0  0  0  0
  1  2  1  0  0  0  0
  2  3  1  0  0  0  0
  2  4  1  0  0  0  0
  2 13  1  0  0  0  0
  2 15  1  0  0  0  0
  2 17  1  0  0  0  0
  2 19  1  0  0  0  0
  2 21  1  0  0  0  0
  2 23  1  0  0  0  0
  3  4  2  0  0  0  0
  3 25  1  0  0  0  0
  4  5  1  0  0  0  0
  5  6  1  0  0  0  0
  5 14  2  0  0  0  0
  6  7  2  0  0  0  0
  6 26  1  0  0  0  0
  7  8  1  0  0  0  0
  7 27  1  0  0  0  0
  8  9  2  0  0  0  0
  8 28  1  0  0  0  0
  9 10  1  0  0  0  0
  9 14  1  0  0  0  0
 10 11  2  0  0  0  0
 10 29  1  0  0  0  0
 11 12  1  0  0  0  0
 11 30  1  0  0  0  0
 12 13  2  0  0  0  0
 12 31  1  0  0  0  0
 13 14  1  0  0  0  0
 15 16  1  0  0  0  0
 15 17  1  0  0  0  0
 15 23  2  0  0  0  0
 16 32  1  0  0  0  0
 16 33  1  0  0  0  0
 16 34  1  0  0  0  0
 17 18  1  0  0  0  0
 17 19  1  0  0  0  0
 18 35  1  0  0  0  0
 18 36  1  0  0  0  0
 18 37  1  0  0  0  0
 19 20  1  0  0  0  0
 19 21  2  0  0  0  0
 20 38  1  0  0  0  0
 20 39  1  0  0  0  0
 20 40  1  0  0  0  0
 21 22  1  0  0  0  0
 21 23  1  0  0  0  0
 22 41  1  0  0  0  0
 22 42  1  0  0  0  0
 22 43  1  0  0  0  0
 23 24  1  0  0  0  0
 24 44  1  0  0  0  0
 24 45  1  0  0  0  0
 24 46  1  0  0  0  0
M  END
$$$$
