
     RDKit          3D

  0  0  0  0  0  0  0  0  0  0999 V3000
M  V30 BEGIN CTAB
M  V30 COUNTS 114 121 0 0 0
M  V30 BEGIN ATOM
M  V30 1 C 5.378748 1.294705 -0.853625 0
M  V30 2 C 4.443657 1.208528 -1.856245 0
M  V30 3 C 3.091039 0.841311 -1.697403 0
M  V30 4 C 2.564503 0.890098 -3.059799 0
M  V30 5 C 3.229841 2.039536 -3.875606 0
M  V30 6 C 3.163963 -0.334917 -3.770039 0
M  V30 7 C 2.662508 0.530509 -0.382904 0
M  V30 8 N 1.253054 0.157262 -0.164882 0
M  V30 9 C 0.365721 1.348653 -0.036883 0
M  V30 10 C -0.908366 1.204828 0.232967 0
M  V30 11 C -1.539350 2.557947 0.310421 0
M  V30 12 C -2.779893 3.088929 0.575027 0
M  V30 13 C -3.040388 4.431729 0.589874 0
M  V30 14 C -2.021137 5.359836 0.329878 0
M  V30 15 C -0.768351 4.861432 0.066706 0
M  V30 16 C 0.312257 5.673858 -0.178033 0
M  V30 17 C 1.508898 5.025676 -0.399084 0
M  V30 18 C 1.599190 3.658089 -0.373566 0
M  V30 19 C 0.542088 2.832151 -0.135691 0
M  V30 20 C -0.622819 3.522500 0.077738 0
M  V30 21 N -1.445207 -0.192736 0.365050 0
M  V30 22 C -2.935955 -0.289331 0.646956 0
M  V30 23 C -3.750112 0.069902 -0.452820 0
M  V30 24 C -3.568314 0.177543 -1.891488 0
M  V30 25 C -3.149555 1.467303 -2.504472 0
M  V30 26 C -3.803433 -1.074414 -2.686913 0
M  V30 27 C -5.127891 0.096221 -0.079142 0
M  V30 28 C -5.694669 -0.178671 1.142797 0
M  V30 29 C -4.833615 -0.522833 2.142387 0
M  V30 30 C -3.491397 -0.576855 1.904119 0
M  V30 31 C -2.743676 -0.908407 3.065827 0
M  V30 32 C -3.667521 -1.545098 4.146386 0
M  V30 33 C -2.456271 0.427328 3.785880 0
M  V30 34 Eu 0.162742 -1.473109 0.100402 0 VAL=7
M  V30 35 N 0.177906 -1.121234 1.981883 0
M  V30 36 C 0.472346 -0.795058 3.056821 0
M  V30 37 S 0.829616 0.013643 4.332122 0
M  V30 38 O 1.273189 -2.869191 1.012231 0
M  V30 39 C 2.559360 -2.623016 1.427841 0
M  V30 40 C 0.946429 -3.950542 1.908978 0
M  V30 41 C -0.291297 -4.281037 1.206804 0
M  V30 42 O -0.766291 -3.036598 0.837434 0
M  V30 43 C -2.049594 -3.308499 0.598087 0
M  V30 44 O -0.761280 -1.545358 -1.664789 0
M  V30 45 C -0.456341 -0.631354 -2.670815 0
M  V30 46 C -0.958773 -2.820591 -2.237599 0
M  V30 47 C 0.469995 -3.090275 -2.509091 0
M  V30 48 O 1.000748 -2.513804 -1.347537 0
M  V30 49 C 2.303657 -2.731059 -1.539659 0
M  V30 50 C 3.706101 0.663247 0.563708 0
M  V30 51 C 3.359665 0.620287 2.005040 0
M  V30 52 C 4.582452 0.259504 2.832355 0
M  V30 53 C 3.013282 2.036701 2.508746 0
M  V30 54 C 5.001105 1.012996 0.421065 0
M  V30 55 H 6.420449 1.563856 -0.998186 0
M  V30 56 H 4.968946 1.476294 -2.798403 0
M  V30 57 H 1.530106 1.004075 -3.200557 0
M  V30 58 H 3.452509 2.819418 -3.144479 0
M  V30 59 H 4.028438 1.662664 -4.487270 0
M  V30 60 H 2.438081 2.410940 -4.548806 0
M  V30 61 H 2.385434 -0.928318 -4.224669 0
M  V30 62 H 3.803919 0.021696 -4.632004 0
M  V30 63 H 3.830607 -0.919848 -3.106082 0
M  V30 64 H -3.535719 2.359493 0.806848 0
M  V30 65 H -4.056005 4.704216 0.804762 0
M  V30 66 H -2.223328 6.407636 0.332850 0
M  V30 67 H 0.189500 6.732908 -0.190914 0
M  V30 68 H 2.409060 5.567804 -0.598456 0
M  V30 69 H 2.527319 3.170992 -0.519387 0
M  V30 70 H -4.745331 0.524215 -2.196557 0
M  V30 71 H -3.413420 1.559934 -3.573836 0
M  V30 72 H -2.068019 1.700918 -2.476049 0
M  V30 73 H -3.731448 2.298027 -2.009283 0
M  V30 74 H -3.355539 -1.145939 -3.659615 0
M  V30 75 H -3.455004 -1.925260 -2.040683 0
M  V30 76 H -4.924857 -1.251321 -2.771258 0
M  V30 77 H -5.971987 0.360256 -0.755923 0
M  V30 78 H -6.744508 -0.131381 1.316301 0
M  V30 79 H -5.328234 -0.725529 3.078212 0
M  V30 80 H -2.020721 -1.661783 3.069360 0
M  V30 81 H -4.308301 -2.300344 3.695456 0
M  V30 82 H -4.269090 -0.784103 4.660815 0
M  V30 83 H -3.014957 -1.972918 4.952850 0
M  V30 84 H -2.094459 0.234690 4.792922 0
M  V30 85 H -1.750891 1.035357 3.202624 0
M  V30 86 H -3.413710 0.990344 3.850215 0
M  V30 87 H 3.130742 -1.873413 0.935251 0
M  V30 88 H 2.447944 -2.313629 2.517779 0
M  V30 89 H 3.104439 -3.598169 1.528111 0
M  V30 90 H 1.717588 -4.669728 1.702610 0
M  V30 91 H 0.870219 -3.488111 2.874501 0
M  V30 92 H -0.244757 -4.996775 0.397804 0
M  V30 93 H -1.023121 -4.544766 2.033837 0
M  V30 94 H -2.229807 -4.186736 -0.047682 0
M  V30 95 H -2.501303 -2.476385 0.027380 0
M  V30 96 H -2.636621 -3.369638 1.548229 0
M  V30 97 H 0.473581 -0.963976 -3.094261 0
M  V30 98 H -1.243565 -0.517201 -3.388260 0
M  V30 99 H -0.246535 0.319508 -2.094363 0
M  V30 100 H -1.538586 -3.548008 -1.786569 0
M  V30 101 H -1.476707 -2.520306 -3.181004 0
M  V30 102 H 0.691526 -4.207299 -2.495587 0
M  V30 103 H 0.866184 -2.605836 -3.348832 0
M  V30 104 H 2.435225 -3.862731 -1.417447 0
M  V30 105 H 2.453023 -2.713747 -2.692384 0
M  V30 106 H 3.123296 -2.233490 -1.165268 0
M  V30 107 H 2.560848 -0.004020 2.188337 0
M  V30 108 H 5.174084 1.139170 3.095543 0
M  V30 109 H 5.241179 -0.472674 2.326452 0
M  V30 110 H 4.269498 -0.194726 3.815438 0
M  V30 111 H 3.050872 1.935155 3.636909 0
M  V30 112 H 2.038278 2.362660 2.187285 0
M  V30 113 H 3.863915 2.701745 2.257021 0
M  V30 114 H 5.727156 1.085876 1.200921 0
M  V30 END ATOM
M  V30 BEGIN BOND
M  V30 1 2 1 2
M  V30 2 1 2 3
M  V30 3 1 3 4
M  V30 4 1 4 5
M  V30 5 1 4 6
M  V30 6 2 3 7
M  V30 7 1 7 8
M  V30 8 1 8 9
M  V30 9 2 9 10
M  V30 10 1 10 11
M  V30 11 2 11 12
M  V30 12 1 12 13
M  V30 13 2 13 14
M  V30 14 1 14 15
M  V30 15 2 15 16
M  V30 16 1 16 17
M  V30 17 2 17 18
M  V30 18 1 18 19
M  V30 19 2 19 20
M  V30 20 1 10 21
M  V30 21 1 21 22
M  V30 22 2 22 23
M  V30 23 1 23 24
M  V30 24 1 24 25
M  V30 25 1 24 26
M  V30 26 1 23 27
M  V30 27 2 27 28
M  V30 28 1 28 29
M  V30 29 2 29 30
M  V30 30 1 30 31
M  V30 31 1 31 32
M  V30 32 1 31 33
M  V30 33 1 21 34
M  V30 34 1 34 35
M  V30 35 2 35 36
M  V30 36 2 36 37
M  V30 37 9 38 34
M  V30 38 1 38 39
M  V30 39 1 38 40
M  V30 40 1 40 41
M  V30 41 1 41 42
M  V30 42 1 42 43
M  V30 43 9 44 34
M  V30 44 1 44 45
M  V30 45 1 44 46
M  V30 46 1 46 47
M  V30 47 1 47 48
M  V30 48 1 48 49
M  V30 49 1 7 50
M  V30 50 1 50 51
M  V30 51 1 51 52
M  V30 52 1 51 53
M  V30 53 2 50 54
M  V30 54 1 54 1
M  V30 55 1 34 8
M  V30 56 1 19 9
M  V30 57 1 30 22
M  V30 58 9 42 34
M  V30 59 1 20 11
M  V30 60 9 48 34
M  V30 61 1 20 15
M  V30 62 1 1 55
M  V30 63 1 2 56
M  V30 64 1 4 57
M  V30 65 1 5 58
M  V30 66 1 5 59
M  V30 67 1 5 60
M  V30 68 1 6 61
M  V30 69 1 6 62
M  V30 70 1 6 63
M  V30 71 1 12 64
M  V30 72 1 13 65
M  V30 73 1 14 66
M  V30 74 1 16 67
M  V30 75 1 17 68
M  V30 76 1 18 69
M  V30 77 1 24 70
M  V30 78 1 25 71
M  V30 79 1 25 72
M  V30 80 1 25 73
M  V30 81 1 26 74
M  V30 82 1 26 75
M  V30 83 1 26 76
M  V30 84 1 27 77
M  V30 85 1 28 78
M  V30 86 1 29 79
M  V30 87 1 31 80
M  V30 88 1 32 81
M  V30 89 1 32 82
M  V30 90 1 32 83
M  V30 91 1 33 84
M  V30 92 1 33 85
M  V30 93 1 33 86
M  V30 94 1 39 87
M  V30 95 1 39 88
M  V30 96 1 39 89
M  V30 97 1 40 90
M  V30 98 1 40 91
M  V30 99 1 41 92
M  V30 100 1 41 93
M  V30 101 1 43 94
M  V30 102 1 43 95
M  V30 103 1 43 96
M  V30 104 1 45 97
M  V30 105 1 45 98
M  V30 106 1 45 99
M  V30 107 1 46 100
M  V30 108 1 46 101
M  V30 109 1 47 102
M  V30 110 1 47 103
M  V30 111 1 49 104
M  V30 112 1 49 105
M  V30 113 1 49 106
M  V30 114 1 51 107
M  V30 115 1 52 108
M  V30 116 1 52 109
M  V30 117 1 52 110
M  V30 118 1 53 111
M  V30 119 1 53 112
M  V30 120 1 53 113
M  V30 121 1 54 114
M  V30 END BOND
M  V30 END CTAB
M  END
