
  --CCDC--092525    3D                              

 87103  0  0  0  0  0  0  0  0999 V2000
   -0.0470    0.1708   -0.0051 H      0
   -1.8103    0.4029   -0.0281 Ru     0
   -1.1613    2.1620    1.5218 Cl     0
    0.7031    1.7826    0.0112 Ru     0
   -1.0310    2.0362   -1.7754 P      3
   -0.4871    1.3835   -3.3889 C      0
   -0.6567    0.0543   -3.7684 C      0
   -0.0739   -0.4689   -4.9074 C      0
    0.6382    0.3478   -5.7500 C      0
    0.7485    1.6873   -5.4486 C      0
    0.1989    2.2035   -4.2819 C      0
   -1.7927    3.6861   -1.7983 C      0
   -2.2632    4.2049   -3.0018 C      0
   -2.8921    5.4399   -3.0453 C      0
   -3.0961    6.1612   -1.8897 C      0
   -2.6331    5.6675   -0.6929 C      0
   -1.9582    4.4616   -0.6529 C      0
    2.2234    1.4732   -1.2206 C      0
    2.3294    0.5575   -2.4232 C      0
    1.6976    2.9481   -1.2976 C      0
    2.9426    3.4408   -2.0258 C      0
    1.2333    3.7291   -0.0021 C      0
    2.0044    5.0249   -0.2280 C      0
    1.4981    3.0434    1.3907 C      0
    2.5144    3.9396    2.0817 C      0
    2.1255    1.5982    1.4455 C      0
    3.5812    1.5138    1.8855 C      0
    2.4091    0.7883    0.1504 C      0
    2.5944   -0.7146    0.1872 C      0
   -3.6845    0.7629   -0.7431 C      0
   -5.1891    0.5698   -0.7566 C      0
   -3.5850    0.7701    0.8051 C      0
   -4.0279    1.9968    1.5773 C      0
   -2.8234   -0.3747    1.5276 C      0
   -2.5247   -0.2761    3.0074 C      0
   -2.0689   -1.4503    0.7171 C      0
   -1.0799   -2.3440    1.4319 C      0
   -2.0712   -1.4104   -0.8258 C      0
   -1.1184   -2.3346   -1.5554 C      0
   -2.9477   -0.3495   -1.5476 C      0
   -3.9514   -1.3326   -2.1127 C      0
   -1.2546   -0.6066   -3.1750 H      0
   -0.1810   -1.5257   -5.1328 H      0
    1.1000   -0.0614   -6.6429 H      0
    1.2810    2.3410   -6.1308 H      0
    0.3191    3.2577   -4.0588 H      0
   -2.1274    3.6421   -3.9191 H      0
   -3.2294    5.8426   -3.9946 H      0
   -3.6134    7.1146   -1.9201 H      0
   -2.7897    6.2268    0.2237 H      0
   -1.5454    4.1476    0.2906 H      0
    1.5150   -0.1624   -2.4373 H      0
    3.2637    0.0006   -2.3900 H      0
    2.3135    1.1189   -3.3539 H      0
    3.2572    2.7703   -2.8189 H      0
    3.7824    3.5490   -1.3427 H      0
    2.7662    4.3995   -2.5122 H      0
    1.7666    5.4661   -1.1940 H      0
    3.0850    4.9350   -0.1365 H      0
    1.6903    5.7642    0.5064 H      0
    3.4608    4.0183    1.5504 H      0
    2.7168    3.5657    3.0822 H      0
    2.1167    4.9397    2.2449 H      0
    3.9163    0.4817    1.9149 H      0
    3.7572    1.8936    2.8882 H      0
    4.2276    2.0492    1.1926 H      0
    3.3452   -1.0305   -0.5338 H      0
    1.6610   -1.2185   -0.0526 H      0
    2.9133   -1.0544    1.1692 H      0
   -5.5754    0.5763   -1.7740 H      0
   -5.6909    1.3748   -0.2244 H      0
   -5.4701   -0.3679   -0.2817 H      0
   -5.1077    1.9887    1.7097 H      0
   -3.7628    2.9067    1.0432 H      0
   -3.5762    2.0404    2.5650 H      0
   -2.5459   -1.2643    3.4628 H      0
   -3.2593    0.3402    3.5199 H      0
   -1.5386    0.1514    3.1766 H      0
   -0.9772   -3.2967    0.9168 H      0
   -1.4149   -2.5480    2.4467 H      0
   -0.0986   -1.8774    1.4840 H      0
   -1.4579   -2.5019   -2.5756 H      0
   -1.0564   -3.3015   -1.0616 H      0
   -0.1185   -1.9083   -1.5989 H      0
   -3.4359   -2.1069   -2.6764 H      0
   -4.6401   -0.8402   -2.7970 H      0
   -4.5246   -1.8179   -1.3260 H      0
  1  2  1
  2  3  1
  3  4  1
  1  4  1
  2  4  1
  4  5  1
  2  5  1
  5  6  1
  6  7  4
  7  8  4
  8  9  4
  9 10  4
 10 11  4
  6 11  4
  5 12  1
 12 13  4
 13 14  4
 14 15  4
 15 16  4
 16 17  4
 12 17  4
  4 18  1
 18 19  1
 18 20  4
  4 20  1
 20 21  1
 20 22  4
  4 22  1
 22 23  1
 22 24  4
  4 24  1
 24 25  1
 24 26  4
  4 26  1
 26 27  1
 26 28  4
  4 28  1
 18 28  4
 28 29  1
  2 30  1
 30 31  1
 30 32  4
  2 32  1
 32 33  1
 32 34  4
  2 34  1
 34 35  1
 34 36  4
  2 36  1
 36 37  1
 36 38  4
  2 38  1
 38 39  1
 38 40  4
  2 40  1
 30 40  4
 40 41  1
  7 42  1
  8 43  1
  9 44  1
 10 45  1
 11 46  1
 13 47  1
 14 48  1
 15 49  1
 16 50  1
 17 51  1
 19 52  1
 19 53  1
 19 54  1
 21 55  1
 21 56  1
 21 57  1
 23 58  1
 23 59  1
 23 60  1
 25 61  1
 25 62  1
 25 63  1
 27 64  1
 27 65  1
 27 66  1
 29 67  1
 29 68  1
 29 69  1
 31 70  1
 31 71  1
 31 72  1
 33 73  1
 33 74  1
 33 75  1
 35 76  1
 35 77  1
 35 78  1
 37 79  1
 37 80  1
 37 81  1
 39 82  1
 39 83  1
 39 84  1
 41 85  1
 41 86  1
 41 87  1
M  CHG  1   5   1
M  END
$$$$
