
  --CCDC--092525    3D                              

 90105  0  0  0  0  0  0  0  0999 V2000
    6.2030   -4.2722   -3.5995 H      0
    5.3191   -3.7015   -3.3993 C      0
    4.8306   -2.8316   -4.3416 C      0
    5.3542   -2.6260   -5.2594 H      0
    3.6999   -2.1205   -4.1084 C      0
    3.1896   -1.6523   -4.9306 H      0
    3.0772   -2.1287   -2.8641 C      0
    1.2931   -1.4215   -2.7923 P      0
    0.2402   -0.8853   -4.3249 C      0
   -0.1805   -1.8661   -5.3049 C      0
   -0.0359   -2.9374   -5.1731 H      0
   -0.6232   -1.5163   -6.5392 C      0
   -0.3585   -2.1297   -7.3906 H      0
   -1.3284   -0.3689   -6.5274 C      0
   -1.9310   -0.1727   -7.3702 H      0
   -1.2593    0.5211   -5.4865 C      0
   -1.9801    1.2996   -5.3308 H      0
   -0.1874    0.4579   -4.6524 C      0
    0.3362    1.3639   -4.3275 H      0
    2.2313    0.7286   -2.5218 Cu     0
    4.1991    1.2317   -2.8105 N      0
    5.2347    0.2380   -2.7363 C      0
    6.3126    0.1366   -3.2797 O      0
    5.2814   -0.6770   -1.5399 C      0
    4.0826   -0.9353   -1.1626 F      0
    5.8341    0.0401   -0.6125 F      0
    6.0803   -1.7172   -1.4202 F      0
    4.6777    2.5412   -3.2256 C      0
    6.0421    2.9278   -3.3443 C      0
    6.8576    2.2829   -3.0249 H      0
    6.4342    4.1607   -3.8683 C      0
    7.4887    4.3740   -4.0632 H      0
    5.4745    5.1224   -4.1313 C      0
    5.8596    6.3403   -4.6395 O      0
    4.8850    7.3498   -4.9217 C      0
    4.1656    7.0041   -5.6626 H      0
    5.3544    8.2527   -5.3097 H      0
    4.3314    7.6223   -4.0241 H      0
    4.1449    4.8325   -3.8697 C      0
    3.3835    5.6030   -3.9621 H      0
    3.7698    3.5541   -3.4768 C      0
    2.7243    3.3304   -3.3507 H      0
    1.4513   -0.4884   -0.6853 P      0
    2.8701    0.1267    0.2477 C      0
    3.6225   -0.7738    1.0276 C      0
    3.3936   -1.8390    1.0099 H      0
    4.7431   -0.3426    1.7157 C      0
    5.3333   -1.0574    2.2822 H      0
    5.1244    0.9825    1.6365 C      0
    5.9996    1.3189    2.1784 H      0
    4.4237    1.8688    0.8388 C      0
    4.7221    2.9090    0.7918 H      0
    3.3185    1.4470    0.1178 C      0
    2.7791    2.1383   -0.5227 H      0
    1.3493   -1.4440   -2.2963 C      0
    0.6776   -0.9154   -3.4220 C      0
   -0.0044   -0.0184   -3.2164 H      0
    1.0291   -1.6286   -4.6474 C      0
    1.1284   -1.0233   -5.5599 H      0
    1.2754   -3.0511   -4.7562 C      0
    1.3021   -3.6311   -5.6879 H      0
    1.5733   -3.6668   -3.5855 C      0
    1.9796   -4.6385   -3.6181 H      0
    1.6820   -2.8780   -2.4225 C      0
    2.1412   -3.3882   -1.5623 H      0
   -0.1599    0.0470    0.1062 C      0
   -1.2171    0.4060   -0.7479 C      0
   -0.7330    0.6053   -1.7563 H      0
   -2.5103   -0.0889   -0.2470 C      0
   -3.2274   -0.2765   -1.0704 H      0
   -2.2082   -0.8398    1.0160 C      0
   -2.5925   -1.8976    1.0460 H      0
   -0.7361   -0.6992    1.1921 C      0
   -0.1557   -1.6683    1.2177 H      0
   -1.2025   -1.7305   -0.5689 Fe     0
   -2.1089   -3.1995   -1.6358 C      0
   -1.2070   -2.4171   -1.9256 H      0
   -1.4759   -3.7888   -0.3963 C      0
   -1.9831   -4.0739    0.5660 H      0
   -0.0233   -3.3646   -0.6380 C      0
    0.7481   -3.4599    0.1179 H      0
    0.0644   -2.7095   -2.0717 C      0
   -1.2089   -2.7039   -2.4923 C      0
   -0.3044   -2.4641   -1.6065 H      0
    3.7795   -2.8755   -1.8509 C      0
    3.5910   -2.7622   -0.7820 H      0
    4.7646   -3.7703   -2.1513 C      0
    5.2032   -4.3351   -1.3328 H      0
    0.9368   -0.7774   -1.5185 H      0
    1.9316   -1.7564   -0.3151 H      0
  1  2  1
  2  3  4
  3  4  1
  3  5  4
  5  6  1
  5  7  4
  7  8  1
  8  9  1
  9 10  4
 10 11  1
 10 12  4
 12 13  1
 12 14  4
 14 15  1
 14 16  4
 16 17  1
 16 18  4
  9 18  4
 18 19  1
  8 20  1
 20 21  1
 21 22  1
 22 23  2
 22 24  1
 24 25  1
 24 26  1
 24 27  1
 21 28  1
 28 29  4
 29 30  1
 29 31  4
 31 32  1
 31 33  4
 33 34  1
 34 35  1
 35 36  1
 35 37  1
 35 38  1
 33 39  4
 39 40  1
 39 41  4
 28 41  4
 41 42  1
 20 43  1
 43 44  1
 44 45  4
 45 46  1
 45 47  4
 47 48  1
 47 49  4
 49 50  1
 49 51  4
 51 52  1
 51 53  4
 44 53  4
 53 54  1
 43 55  1
 55 56  4
 56 57  1
 56 58  4
 58 59  1
 58 60  4
 60 61  1
 60 62  4
 62 63  1
 62 64  4
 55 64  4
 64 65  1
 43 66  1
 66 67  4
 67 68  1
 67 69  4
 69 70  1
 69 71  4
 71 72  1
 71 73  4
 66 73  4
 73 74  1
 73 75  1
 69 75  1
 71 75  1
 67 75  1
 66 75  1
 75 76  1
 76 77  1
 76 78  4
 75 78  1
 78 79  1
 78 80  4
 75 80  1
 80 81  1
 80 82  4
  8 82  1
 75 82  1
 82 83  4
 76 83  4
 75 83  1
 83 84  1
  7 85  4
 85 86  1
 85 87  4
  2 87  4
 87 88  1
  8 89  1
 43 90  1
M  END
$$$$
