
  --CCDC--092525    3D                              

 73 77  0  0  0  0  0  0  0  0999 V2000
    0.1408    0.5039    0.6875 Cl     0
    1.0046    2.6794    0.1563 Ir     0
    1.4717    2.2698   -1.8618 N      0
    0.5828    2.1891   -2.8982 C      0
   -0.5802    3.0151   -3.1026 C      0
   -1.1070    4.0380   -2.1503 C      0
   -1.2849    3.2861   -0.5275 P      0
   -2.3687    1.8242   -0.5883 C      0
   -2.0120    0.7710   -1.6411 C      0
   -3.8280    2.2103   -0.8220 C      0
   -2.1554    4.4548    0.5558 C      0
   -3.1418    5.3143   -0.2393 C      0
   -1.2393    5.4130    1.3071 C      0
   -1.3542    2.8703   -4.2254 C      0
   -1.1264    1.8831   -5.1598 C      0
   -0.0673    1.0522   -5.0032 C      0
    0.8238    1.2255   -3.9191 C      0
    1.9784    0.4699   -3.8657 C      0
    2.9978    0.8310   -3.0100 C      0
    4.2623    0.2052   -3.0876 C      0
    5.2998    0.6849   -2.3584 C      0
    5.1226    1.8096   -1.5784 C      0
    3.9119    2.4404   -1.4405 C      0
    4.0067    3.6855   -0.6002 C      0
    2.4775    4.5952   -0.2948 P      0
    2.9017    5.6991    1.0866 C      0
    1.7163    6.4163    1.7285 C      0
    3.6242    4.9583    2.2131 C      0
    2.0971    5.5441   -1.7916 C      0
    1.1838    6.7414   -1.5249 C      0
    3.3919    6.0803   -2.4023 C      0
    2.7523    1.8790   -2.0849 C      0
    0.5310    3.4200    1.5382 H      0
    2.3417    2.0272    0.8464 H      0
   -0.4283    4.8928   -2.1085 H      0
   -2.0838    4.3934   -2.5008 H      0
   -2.3167    1.3440    0.4007 H      0
   -2.5307   -0.1628   -1.4344 H      0
   -0.9451    0.5676   -1.6696 H      0
   -2.3163    1.0994   -2.6305 H      0
   -3.9408    2.7421   -1.7645 H      0
   -4.1892    2.8542   -0.0230 H      0
   -4.4601    1.3253   -0.8545 H      0
   -2.7131    3.8780    1.3098 H      0
   -3.9672    4.7332   -0.6392 H      0
   -2.6382    5.7970   -1.0742 H      0
   -3.5608    6.0940    0.3934 H      0
   -0.5431    5.9019    0.6314 H      0
   -1.8234    6.1830    1.8067 H      0
   -0.6773    4.8835    2.0702 H      0
   -2.1964    3.5392   -4.3682 H      0
   -1.7870    1.7738   -6.0135 H      0
    0.1169    0.2706   -5.7328 H      0
    2.1201   -0.3523   -4.5592 H      0
    4.4087   -0.6438   -3.7471 H      0
    6.2701    0.2018   -2.4067 H      0
    5.9799    2.2137   -1.0503 H      0
    4.4005    3.3528    0.3661 H      0
    4.7539    4.3647   -1.0287 H      0
    3.5881    6.4667    0.6969 H      0
    1.0944    6.9211    0.9951 H      0
    2.0673    7.1620    2.4387 H      0
    1.1055    5.7071    2.2782 H      0
    3.0634    4.0780    2.5203 H      0
    3.7374    5.6051    3.0805 H      0
    4.6185    4.6436    1.9067 H      0
    1.6235    4.8742   -2.5259 H      0
    0.9679    7.2730   -2.4493 H      0
    1.6582    7.4392   -0.8381 H      0
    0.2399    6.4295   -1.0869 H      0
    4.0669    5.2651   -2.6543 H      0
    3.9029    6.7409   -1.7049 H      0
    3.1855    6.6415   -3.3112 H      0
  1  2  1
  2  3  1
  3  4  4
  4  5  4
  5  6  1
  6  7  1
  2  7  1
  7  8  1
  8  9  1
  8 10  1
  7 11  1
 11 12  1
 11 13  1
  5 14  4
 14 15  4
 15 16  4
 16 17  4
  4 17  4
 17 18  4
 18 19  4
 19 20  4
 20 21  4
 21 22  4
 22 23  4
 23 24  1
 24 25  1
  2 25  1
 25 26  1
 26 27  1
 26 28  1
 25 29  1
 29 30  1
 29 31  1
 23 32  4
  3 32  4
 19 32  4
  2 33  1
  2 34  1
  6 35  1
  6 36  1
  8 37  1
  9 38  1
  9 39  1
  9 40  1
 10 41  1
 10 42  1
 10 43  1
 11 44  1
 12 45  1
 12 46  1
 12 47  1
 13 48  1
 13 49  1
 13 50  1
 14 51  1
 15 52  1
 16 53  1
 18 54  1
 20 55  1
 21 56  1
 22 57  1
 24 58  1
 24 59  1
 26 60  1
 27 61  1
 27 62  1
 27 63  1
 28 64  1
 28 65  1
 28 66  1
 29 67  1
 30 68  1
 30 69  1
 30 70  1
 31 71  1
 31 72  1
 31 73  1
M  END
$$$$
