
 OpenBabel09252514033D

 57 60  0  0  0  0  0  0  0  0999 V2000
    2.0215    1.2825    0.3417 C   0  0  0  0  0  0  0  0  0  0  0  0
    0.8912    1.6539    1.1299 O   0  0  0  0  0  0  0  0  0  0  0  0
    0.9077    1.2640    2.4463 C   0  0  0  0  0  0  0  0  0  0  0  0
    2.0694    0.7967    3.0873 C   0  0  0  0  0  0  0  0  0  0  0  0
    2.0503    0.4204    4.4315 C   0  0  0  0  0  0  0  0  0  0  0  0
    0.8724    0.5156    5.1595 C   0  0  0  0  0  0  0  0  0  0  0  0
   -0.2867    0.9820    4.5399 C   0  0  0  0  0  0  0  0  0  0  0  0
   -0.2872    1.3578    3.1858 C   0  0  0  0  0  0  0  0  0  0  0  0
   -1.5634    1.7653    2.6421 C   0  0  0  0  0  0  0  0  0  0  0  0
   -2.7115    1.9789    2.3495 C   0  0  0  0  0  0  0  0  0  0  0  0
   -4.1421    2.1030    2.1279 C   0  0  0  0  0  0  0  0  0  0  0  0
   -4.7685    1.6646    1.0018 C   0  0  0  0  0  0  0  0  0  0  0  0
   -3.9376    1.3008   -0.1362 N   0  0  0  0  0  0  0  0  0  0  0  0
   -2.8296    0.3960   -0.1104 C   0  0  0  0  0  0  0  0  0  0  0  0
   -2.8124   -0.7460    0.6972 C   0  0  0  0  0  0  0  0  0  0  0  0
   -1.6946   -1.5842    0.6962 C   0  0  0  0  0  0  0  0  0  0  0  0
   -0.6245   -1.3220   -0.1585 C   0  0  0  0  0  0  0  0  0  0  0  0
   -0.6740   -0.2291   -1.0206 C   0  0  0  0  0  0  0  0  0  0  0  0
   -1.7667    0.6344   -0.9878 C   0  0  0  0  0  0  0  0  0  0  0  0
   -4.8545    1.3150   -1.5756 S   0  0  0  0  0  0  0  0  0  0  0  0
   -4.4352    2.4139   -2.4180 O   0  0  0  0  0  0  0  0  0  0  0  0
   -5.0499   -0.0299   -2.0758 O   0  0  0  0  0  0  0  0  0  0  0  0
   -6.3410    1.7744   -0.7938 C   0  0  0  0  0  0  0  0  0  0  0  0
   -7.5448    1.9561   -1.4643 C   0  0  0  0  0  0  0  0  0  0  0  0
   -8.6911    2.0924   -0.6937 C   0  0  0  0  0  0  0  0  0  0  0  0
   -8.6081    1.9438    0.6949 C   0  0  0  0  0  0  0  0  0  0  0  0
   -7.3694    1.7300    1.3258 C   0  0  0  0  0  0  0  0  0  0  0  0
   -6.1939    1.7578    0.5903 C   0  0  0  0  0  0  0  0  0  0  0  0
   -4.8974    2.9613    3.6737 Si  0  0  0  0  0  0  0  0  0  0  0  0
   -4.9636    1.6584    5.0541 C   0  0  0  0  0  0  0  0  0  0  0  0
   -3.7440    4.3551    4.2627 C   0  0  0  0  0  0  0  0  0  0  0  0
   -6.5871    3.7640    3.5609 C   0  0  0  0  0  0  0  0  0  0  0  0
    1.8132    1.5387   -0.7012 H   0  0  0  0  0  0  0  0  0  0  0  0
    2.2036    0.2016    0.3857 H   0  0  0  0  0  0  0  0  0  0  0  0
    2.9152    1.8404    0.6402 H   0  0  0  0  0  0  0  0  0  0  0  0
    3.0183    0.7156    2.5665 H   0  0  0  0  0  0  0  0  0  0  0  0
    2.9585    0.0567    4.9058 H   0  0  0  0  0  0  0  0  0  0  0  0
    0.8521    0.2251    6.2061 H   0  0  0  0  0  0  0  0  0  0  0  0
   -1.2046    1.0429    5.1201 H   0  0  0  0  0  0  0  0  0  0  0  0
   -3.6430   -0.9701    1.3583 H   0  0  0  0  0  0  0  0  0  0  0  0
   -1.6540   -2.4366    1.3685 H   0  0  0  0  0  0  0  0  0  0  0  0
    0.2522   -1.9635   -0.1471 H   0  0  0  0  0  0  0  0  0  0  0  0
    0.1514   -0.0235   -1.6955 H   0  0  0  0  0  0  0  0  0  0  0  0
   -1.7743    1.5103   -1.6323 H   0  0  0  0  0  0  0  0  0  0  0  0
   -7.5867    1.9675   -2.5492 H   0  0  0  0  0  0  0  0  0  0  0  0
   -9.6549    2.2568   -1.1700 H   0  0  0  0  0  0  0  0  0  0  0  0
   -9.5180    1.9795    1.2915 H   0  0  0  0  0  0  0  0  0  0  0  0
   -7.3637    1.5213    2.3878 H   0  0  0  0  0  0  0  0  0  0  0  0
   -3.9539    1.3695    5.3589 H   0  0  0  0  0  0  0  0  0  0  0  0
   -5.4896    2.0581    5.9262 H   0  0  0  0  0  0  0  0  0  0  0  0
   -5.4941    0.7663    4.7081 H   0  0  0  0  0  0  0  0  0  0  0  0
   -3.6176    5.0926    3.4644 H   0  0  0  0  0  0  0  0  0  0  0  0
   -4.1913    4.8588    5.1257 H   0  0  0  0  0  0  0  0  0  0  0  0
   -2.7651    3.9708    4.5566 H   0  0  0  0  0  0  0  0  0  0  0  0
   -6.7702    4.2044    2.5778 H   0  0  0  0  0  0  0  0  0  0  0  0
   -7.3895    3.0634    3.8074 H   0  0  0  0  0  0  0  0  0  0  0  0
   -6.6632    4.5705    4.2981 H   0  0  0  0  0  0  0  0  0  0  0  0
  1  2  1  0  0  0  0
  1 33  1  0  0  0  0
  1 34  1  0  0  0  0
  1 35  1  0  0  0  0
  2  3  1  0  0  0  0
  3  4  1  0  0  0  0
  3  8  2  0  0  0  0
  4  5  2  0  0  0  0
  4 36  1  0  0  0  0
  5  6  1  0  0  0  0
  5 37  1  0  0  0  0
  6  7  2  0  0  0  0
  6 38  1  0  0  0  0
  7  8  1  0  0  0  0
  7 39  1  0  0  0  0
  8  9  1  0  0  0  0
  9 10  3  0  0  0  0
 10 11  1  0  0  0  0
 11 12  2  0  0  0  0
 11 29  1  0  0  0  0
 12 13  1  0  0  0  0
 12 28  1  0  0  0  0
 13 14  1  0  0  0  0
 13 20  1  0  0  0  0
 14 15  1  0  0  0  0
 14 19  2  0  0  0  0
 15 16  2  0  0  0  0
 15 40  1  0  0  0  0
 16 17  1  0  0  0  0
 16 41  1  0  0  0  0
 17 18  2  0  0  0  0
 17 42  1  0  0  0  0
 18 19  1  0  0  0  0
 18 43  1  0  0  0  0
 19 44  1  0  0  0  0
 20 21  2  0  0  0  0
 20 22  2  0  0  0  0
 20 23  1  0  0  0  0
 23 24  1  0  0  0  0
 23 28  2  0  0  0  0
 24 25  2  0  0  0  0
 24 45  1  0  0  0  0
 25 26  1  0  0  0  0
 25 46  1  0  0  0  0
 26 27  2  0  0  0  0
 26 47  1  0  0  0  0
 27 28  1  0  0  0  0
 27 48  1  0  0  0  0
 29 30  1  0  0  0  0
 29 31  1  0  0  0  0
 29 32  1  0  0  0  0
 30 49  1  0  0  0  0
 30 50  1  0  0  0  0
 30 51  1  0  0  0  0
 31 52  1  0  0  0  0
 31 53  1  0  0  0  0
 31 54  1  0  0  0  0
 32 55  1  0  0  0  0
 32 56  1  0  0  0  0
 32 57  1  0  0  0  0
M  END
$$$$
