
  --CCDC--092525    3D                              

 75 79  0  0  0  0  0  0  0  0999 V2000
    3.0793    0.2714    0.3370 H      0
    3.0404    1.3527    0.2571 C      0
    3.1032    1.9645   -0.9740 C      0
    3.1890    1.3291   -1.8491 H      0
    3.0621    3.3264   -1.1499 C      0
    2.9686    4.1986    0.0024 C      0
    2.8826    3.5254    1.2551 C      0
    2.9245    2.1180    1.3647 C      0
    2.8623    1.6496    2.3414 H      0
    2.7424    4.2607    2.4099 C      0
    2.6468    3.7461    3.3603 H      0
    2.7259    5.6360    2.3824 C      0
    2.5627    6.3303    3.6022 C      0
    2.4323    5.7757    4.5256 H      0
    2.5689    7.6823    3.6248 C      0
    2.4299    8.2181    4.5580 H      0
    2.7675    8.3683    2.4482 C      0
    2.7949    9.4524    2.4833 H      0
    2.9428    7.7522    1.2352 C      0
    2.8781    6.3067    1.1358 C      0
    2.9482    5.5670   -0.0168 N      0
    2.8559    6.5834   -1.8494 Ir     0
    4.2182    5.9334   -2.4847 H      0
    2.5055    7.7006   -2.9972 H      0
    0.7308    7.2302   -0.9349 Cl     0
    1.8209    4.8008   -3.1918 P      0
    1.6461    5.8027   -4.6936 C      0
    0.9824    6.6533   -4.4737 H      0
    1.0262    4.9777   -5.8254 C      0
    1.7520    4.2756   -6.2303 H      0
    0.7007    5.6253   -6.6369 H      0
    0.1678    4.4049   -5.4844 H      0
    2.9766    6.3323   -5.2391 C      0
    2.9188    6.4534   -6.3188 H      0
    3.7809    5.6313   -5.0261 H      0
    3.2508    7.2942   -4.8169 H      0
    0.1545    4.2241   -2.7482 C      0
   -0.0335    3.3159   -3.3414 H      0
   -0.9481    5.2200   -3.1241 C      0
   -1.9248    4.7474   -3.0440 H      0
   -0.8350    5.5780   -4.1434 H      0
   -0.9509    6.0858   -2.4711 H      0
   -0.0319    3.8482   -1.2765 C      0
    0.3604    2.8562   -1.0698 H      0
   -1.0893    3.8397   -1.0203 H      0
    0.4666    4.5599   -0.6227 H      0
    3.1174    3.6810   -2.6142 C      0
    3.0131    2.7511   -3.1859 H      0
    4.1113    4.0644   -2.8682 H      0
    4.4912    8.2142   -1.0096 P      0
    5.9353    8.1759    0.0933 C      0
    6.8193    8.1251   -0.5610 H      0
    6.0814    9.4114    0.9854 C      0
    6.1344   10.3266    0.4036 H      0
    6.9874    9.3436    1.5839 H      0
    5.2365    9.4942    1.6658 H      0
    6.0034    6.9336    0.9854 C      0
    5.7332    6.0399    0.4269 H      0
    7.0144    6.7989    1.3642 H      0
    5.3457    7.0161    1.8454 H      0
    4.7815    9.3500   -2.3907 C      0
    3.8305    9.4516   -2.9361 H      0
    5.8198    8.7856   -3.3613 C      0
    5.9511    9.4485   -4.2140 H      0
    6.7838    8.6698   -2.8704 H      0
    5.5100    7.8114   -3.7339 H      0
    5.2159   10.7495   -1.9547 C      0
    5.0897   11.4594   -2.7695 H      0
    6.2648   10.7570   -1.6687 H      0
    4.6242   11.0953   -1.1097 H      0
    3.2307    8.7627    0.1544 C      0
    2.3191    9.0342   -0.3851 H      0
    3.5681    9.6920    0.6285 H      0
    2.3570    4.0957   -4.2755 H      0
    5.0618    6.9484   -1.1891 H      0
  1  2  1
  2  3  4
  3  4  1
  3  5  4
  5  6  4
  6  7  4
  7  8  4
  2  8  4
  8  9  1
  7 10  4
 10 11  1
 10 12  4
 12 13  4
 13 14  1
 13 15  4
 15 16  1
 15 17  4
 17 18  1
 17 19  4
 19 20  4
 12 20  4
 20 21  4
  6 21  4
 21 22  1
 22 23  1
 22 24  1
 22 25  1
 22 26  1
 26 27  1
 27 28  1
 27 29  1
 29 30  1
 29 31  1
 29 32  1
 27 33  1
 33 34  1
 33 35  1
 33 36  1
 26 37  1
 37 38  1
 37 39  1
 39 40  1
 39 41  1
 39 42  1
 37 43  1
 43 44  1
 43 45  1
 43 46  1
 26 47  1
  5 47  1
 47 48  1
 47 49  1
 22 50  1
 50 51  1
 51 52  1
 51 53  1
 53 54  1
 53 55  1
 53 56  1
 51 57  1
 57 58  1
 57 59  1
 57 60  1
 50 61  1
 61 62  1
 61 63  1
 63 64  1
 63 65  1
 63 66  1
 61 67  1
 67 68  1
 67 69  1
 67 70  1
 50 71  1
 19 71  1
 71 72  1
 71 73  1
 26 74  1
 50 75  1
M  END
$$$$
