
  --CCDC--092525    3D                              

 19 24  0  0  0  0  0  0  0  0999 V2000
   -0.0825    0.1073   -0.0112 H      0
   -1.6279    0.4087   -0.0050 Si     0
   -3.0653   -0.9348    0.6292 Cl     0
   -3.4598    1.1263    0.6260 Cl     0
   -3.2369    0.1078   -1.2673 Cl     0
    0.6507    1.8830   -0.0002 Mn     0
   -0.6761    2.3574    1.8029 C      0
   -1.3362    2.5934    2.6999 O      0
    1.3379    0.6771    1.8197 C      0
    1.6864    0.0855    2.7299 O      0
    1.6354    2.1320   -1.9242 C      0
    0.6102    3.0999   -1.8027 C      0
    0.9700    3.9253   -0.6836 C      0
    2.1414    3.4315    0.1748 C      0
    2.8084    3.9769    1.4187 C      0
    2.5768    2.4014   -0.8730 C      0
    2.4475    3.4628    2.3068 H      0
    2.6030    5.0388    1.5350 H      0
    3.8864    3.8440    1.3649 H      0
  1  2  1
  2  3  1
  2  4  1
  2  5  1
  2  6  1
  1  6  1
  6  7  1
  7  8  3
  6  9  1
  9 10  3
  6 11  1
 11 12  4
  6 12  1
 12 13  4
  6 13  1
 13 14  4
  6 14  1
 14 15  1
 14 16  4
  6 16  1
 11 16  4
 15 17  1
 15 18  1
 15 19  1
M  END
$$$$
