
     RDKit          3D

  0  0  0  0  0  0  0  0  0  0999 V3000
M  V30 BEGIN CTAB
M  V30 COUNTS 114 121 0 0 0
M  V30 BEGIN ATOM
M  V30 1 C 1.596592 -3.349727 -0.151214 0
M  V30 2 O 0.364154 -2.763784 -0.297212 0
M  V30 3 C -0.264224 -4.067410 -0.567504 0
M  V30 4 C -1.522646 -3.492091 -1.035175 0
M  V30 5 O -1.536874 -2.441713 -0.091897 0
M  V30 6 C -2.844555 -2.243277 -0.086318 0
M  V30 7 Eu -0.203021 -1.311038 0.917603 0 VAL=7
M  V30 8 N -1.575400 -0.684664 2.292384 0
M  V30 9 C -1.494644 0.135361 3.257959 0
M  V30 10 S -2.042516 0.603468 4.659132 0
M  V30 11 N -1.238503 0.411199 0.223132 0
M  V30 12 C -2.475514 0.843851 -0.442143 0
M  V30 13 C -3.745893 0.734711 0.247906 0
M  V30 14 C -4.901563 1.027890 -0.505655 0
M  V30 15 C -4.846019 1.395920 -1.812000 0
M  V30 16 C -3.593836 1.508657 -2.435642 0
M  V30 17 C -2.456298 1.246047 -1.743414 0
M  V30 18 C -1.424889 1.977239 -2.379003 0
M  V30 19 C -1.782350 2.233008 -3.872183 0
M  V30 20 C 0.009221 2.136928 -2.345667 0
M  V30 21 C -4.257157 0.409517 1.541861 0
M  V30 22 C -5.140759 1.542813 2.133206 0
M  V30 23 C -5.476617 -0.600199 1.311193 0
M  V30 24 C -0.460956 1.622969 0.555698 0
M  V30 25 C 0.840625 1.369632 0.442246 0
M  V30 26 N 1.189092 -0.015455 0.024299 0
M  V30 27 C 2.342428 -0.294365 -0.879934 0
M  V30 28 C 3.677404 -0.020209 -0.573272 0
M  V30 29 C 4.690657 -0.335305 -1.421910 0
M  V30 30 C 4.471500 -0.951778 -2.627978 0
M  V30 31 C 3.196692 -1.258615 -2.984982 0
M  V30 32 C 2.092773 -0.955382 -2.156487 0
M  V30 33 C 0.884290 -1.340807 -2.817661 0
M  V30 34 C 1.175175 -2.677470 -3.579297 0
M  V30 35 C 0.619659 -0.461652 -4.106653 0
M  V30 36 C 4.351839 0.300817 0.681632 0
M  V30 37 C 5.513803 1.293564 0.446199 0
M  V30 38 C 5.216534 -0.949145 1.145399 0
M  V30 39 C 1.436497 2.698444 0.777588 0
M  V30 40 C 2.641334 3.274411 0.869112 0
M  V30 41 C 2.960376 4.562155 1.191548 0
M  V30 42 C 1.934046 5.471332 1.483529 0
M  V30 43 C 0.638364 4.973367 1.415794 0
M  V30 44 C -0.476981 5.704971 1.652370 0
M  V30 45 C -1.732255 5.114757 1.543582 0
M  V30 46 C -1.849610 3.790098 1.194834 0
M  V30 47 C -0.696748 3.061660 0.956988 0
M  V30 48 C 0.501860 3.667144 1.077004 0
M  V30 49 O -0.347990 -2.587404 2.379895 0
M  V30 50 C -1.007349 -3.710580 2.495547 0
M  V30 51 C 0.408119 -2.605739 3.604980 0
M  V30 52 C 0.969776 -1.263016 3.608019 0
M  V30 53 O 1.240144 -1.327832 2.202244 0
M  V30 54 C 2.349356 -2.089033 2.186685 0
M  V30 55 H 2.496897 -2.795656 -0.101301 0
M  V30 56 H 1.755045 -3.958689 -1.036084 0
M  V30 57 H 1.485522 -4.105756 0.691194 0
M  V30 58 H -0.210473 -4.718859 0.270719 0
M  V30 59 H 0.307687 -4.353301 -1.450255 0
M  V30 60 H -2.317893 -4.219083 -0.786979 0
M  V30 61 H -1.538595 -3.044957 -1.981798 0
M  V30 62 H -3.219650 -1.823340 -0.988354 0
M  V30 63 H -3.336574 -3.324669 0.011596 0
M  V30 64 H -3.221831 -1.825446 0.842623 0
M  V30 65 H -5.963547 0.997695 -0.208098 0
M  V30 66 H -5.754778 1.592657 -2.380026 0
M  V30 67 H -3.769848 1.784553 -3.467026 0
M  V30 68 H -1.754773 3.183959 -2.062653 0
M  V30 69 H -2.105025 1.348298 -4.408621 0
M  V30 70 H -2.534086 3.062307 -3.882735 0
M  V30 71 H -0.887315 2.688729 -4.400351 0
M  V30 72 H 0.312788 3.078374 -1.735135 0
M  V30 73 H 0.394434 2.550487 -3.384958 0
M  V30 74 H 0.702463 1.397371 -2.137758 0
M  V30 75 H -3.757580 -0.118626 2.284468 0
M  V30 76 H -5.726892 1.955164 1.368528 0
M  V30 77 H -4.447528 2.240214 2.684890 0
M  V30 78 H -5.728947 1.086779 2.929615 0
M  V30 79 H -6.400386 -0.002004 1.382358 0
M  V30 80 H -5.531162 -1.307826 2.153570 0
M  V30 81 H -5.372546 -1.142781 0.385923 0
M  V30 82 H 5.772863 -0.165398 -1.297491 0
M  V30 83 H 5.281566 -1.219167 -3.330316 0
M  V30 84 H 3.113698 -1.733348 -3.953177 0
M  V30 85 H -0.064235 -1.399920 -2.411409 0
M  V30 86 H 2.016662 -3.150150 -3.101240 0
M  V30 87 H 1.436996 -2.468806 -4.626561 0
M  V30 88 H 0.259993 -3.309924 -3.534222 0
M  V30 89 H -0.414298 -0.131059 -4.096224 0
M  V30 90 H 1.314648 0.376151 -4.129927 0
M  V30 91 H 0.702808 -1.095501 -5.014499 0
M  V30 92 H 3.785903 0.595190 1.534681 0
M  V30 93 H 6.415989 0.715085 0.255138 0
M  V30 94 H 5.668552 1.783154 1.447640 0
M  V30 95 H 5.290559 2.007332 -0.370639 0
M  V30 96 H 5.141250 -0.997857 2.208966 0
M  V30 97 H 4.870894 -1.775891 0.525868 0
M  V30 98 H 6.251182 -0.724210 0.780970 0
M  V30 99 H 3.437541 2.673070 0.635919 0
M  V30 100 H 3.998042 4.908015 1.227291 0
M  V30 101 H 2.088438 6.492786 1.743462 0
M  V30 102 H -0.395993 6.747985 1.927547 0
M  V30 103 H -2.664713 5.618989 1.715585 0
M  V30 104 H -2.777385 3.251500 1.090204 0
M  V30 105 H -1.627593 -3.600684 3.432923 0
M  V30 106 H -0.357564 -4.596481 2.567488 0
M  V30 107 H -1.804774 -3.931616 1.756550 0
M  V30 108 H -0.366648 -2.748077 4.438659 0
M  V30 109 H 1.072273 -3.421336 3.545677 0
M  V30 110 H 1.958937 -1.322678 4.122221 0
M  V30 111 H 0.515849 -0.397603 3.962838 0
M  V30 112 H 2.378456 -3.103165 2.535882 0
M  V30 113 H 2.867139 -1.870219 1.269618 0
M  V30 114 H 3.040415 -1.546007 2.940859 0
M  V30 END ATOM
M  V30 BEGIN BOND
M  V30 1 1 1 2
M  V30 2 1 2 3
M  V30 3 1 3 4
M  V30 4 1 4 5
M  V30 5 1 5 6
M  V30 6 9 5 7
M  V30 7 1 7 8
M  V30 8 2 8 9
M  V30 9 2 9 10
M  V30 10 1 7 11
M  V30 11 1 11 12
M  V30 12 2 12 13
M  V30 13 1 13 14
M  V30 14 2 14 15
M  V30 15 1 15 16
M  V30 16 2 16 17
M  V30 17 1 17 18
M  V30 18 1 18 19
M  V30 19 1 18 20
M  V30 20 1 13 21
M  V30 21 1 21 22
M  V30 22 1 21 23
M  V30 23 1 11 24
M  V30 24 2 24 25
M  V30 25 1 25 26
M  V30 26 1 26 27
M  V30 27 2 27 28
M  V30 28 1 28 29
M  V30 29 2 29 30
M  V30 30 1 30 31
M  V30 31 2 31 32
M  V30 32 1 32 33
M  V30 33 1 33 34
M  V30 34 1 33 35
M  V30 35 1 28 36
M  V30 36 1 36 37
M  V30 37 1 36 38
M  V30 38 1 25 39
M  V30 39 2 39 40
M  V30 40 1 40 41
M  V30 41 2 41 42
M  V30 42 1 42 43
M  V30 43 2 43 44
M  V30 44 1 44 45
M  V30 45 2 45 46
M  V30 46 1 46 47
M  V30 47 2 47 48
M  V30 48 9 49 7
M  V30 49 1 49 50
M  V30 50 1 49 51
M  V30 51 1 51 52
M  V30 52 1 52 53
M  V30 53 1 53 54
M  V30 54 9 2 7
M  V30 55 1 17 12
M  V30 56 1 47 24
M  V30 57 1 26 7
M  V30 58 1 32 27
M  V30 59 1 48 39
M  V30 60 9 53 7
M  V30 61 1 48 43
M  V30 62 1 1 55
M  V30 63 1 1 56
M  V30 64 1 1 57
M  V30 65 1 3 58
M  V30 66 1 3 59
M  V30 67 1 4 60
M  V30 68 1 4 61
M  V30 69 1 6 62
M  V30 70 1 6 63
M  V30 71 1 6 64
M  V30 72 1 14 65
M  V30 73 1 15 66
M  V30 74 1 16 67
M  V30 75 1 18 68
M  V30 76 1 19 69
M  V30 77 1 19 70
M  V30 78 1 19 71
M  V30 79 1 20 72
M  V30 80 1 20 73
M  V30 81 1 20 74
M  V30 82 1 21 75
M  V30 83 1 22 76
M  V30 84 1 22 77
M  V30 85 1 22 78
M  V30 86 1 23 79
M  V30 87 1 23 80
M  V30 88 1 23 81
M  V30 89 1 29 82
M  V30 90 1 30 83
M  V30 91 1 31 84
M  V30 92 1 33 85
M  V30 93 1 34 86
M  V30 94 1 34 87
M  V30 95 1 34 88
M  V30 96 1 35 89
M  V30 97 1 35 90
M  V30 98 1 35 91
M  V30 99 1 36 92
M  V30 100 1 37 93
M  V30 101 1 37 94
M  V30 102 1 37 95
M  V30 103 1 38 96
M  V30 104 1 38 97
M  V30 105 1 38 98
M  V30 106 1 40 99
M  V30 107 1 41 100
M  V30 108 1 42 101
M  V30 109 1 44 102
M  V30 110 1 45 103
M  V30 111 1 46 104
M  V30 112 1 50 105
M  V30 113 1 50 106
M  V30 114 1 50 107
M  V30 115 1 51 108
M  V30 116 1 51 109
M  V30 117 1 52 110
M  V30 118 1 52 111
M  V30 119 1 54 112
M  V30 120 1 54 113
M  V30 121 1 54 114
M  V30 END BOND
M  V30 END CTAB
M  END
