
 OpenBabel09252518453D

 87103  0  0  0  0  0  0  0  0999 V2000
    0.8180    1.0620   -0.2230 H   0  0  0  0  0  0  0  0  0  0  0  0
    1.8030   -0.0000    0.2970 Ru  0  0  0  0  0  0  0  0  0  0  0  0
    0.8190   -1.0620   -0.2240 Cl  0  0  0  0  0  2  0  0  0  0  0  0
   -0.2760   -0.0000   -0.0710 Ru  0  0  0  0  0  0  0  0  0  0  0  0
    3.3628    0.6048    2.1949 P   0  3  0  0  0  0  0  0  0  0  0  0
    3.9850   -0.9246    2.9841 C   0  0  0  0  0  0  0  0  0  0  0  0
    3.8205   -1.0437    4.3542 C   0  0  0  0  0  0  0  0  0  0  0  0
    4.6751   -1.9991    4.9533 C   0  0  0  0  0  0  0  0  0  0  0  0
    5.3107   -2.9520    4.2960 C   0  0  0  0  0  0  0  0  0  0  0  0
    5.3798   -2.8116    2.9377 C   0  0  0  0  0  0  0  0  0  0  0  0
    4.6773   -1.8224    2.2928 C   0  0  0  0  0  0  0  0  0  0  0  0
    4.7728    1.5710    1.5414 C   0  0  0  0  0  0  0  0  0  0  0  0
    6.0703    1.1009    1.6605 C   0  0  0  0  0  0  0  0  0  0  0  0
    7.0597    2.0646    1.3532 C   0  0  0  0  0  0  0  0  0  0  0  0
    6.8374    3.1766    0.6764 C   0  0  0  0  0  0  0  0  0  0  0  0
    5.5302    3.5514    0.5350 C   0  0  0  0  0  0  0  0  0  0  0  0
    4.5100    2.7204    0.9306 C   0  0  0  0  0  0  0  0  0  0  0  0
   -1.4770   -0.0000    0.8690 C   0  0  0  0  0  0  0  0  0  0  0  0
   -2.0468    0.0000    2.2782 C   0  0  0  0  0  0  0  0  0  0  0  0
   -1.6880    0.0000   -0.6480 C   0  0  0  0  0  0  0  0  0  0  0  0
   -2.6206    0.0000   -1.8483 C   0  0  0  0  0  0  0  0  0  0  0  0
   -3.1408    3.3653   -2.4207 C   0  0  0  0  0  0  0  0  0  0  0  0
   -4.0903    3.9677   -1.3980 C   0  0  0  0  0  0  0  0  0  0  0  0
   -2.2533    2.1928   -2.0358 C   0  0  0  0  0  0  0  0  0  0  0  0
   -1.3039    1.5904   -3.0585 C   0  0  0  0  0  0  0  0  0  0  0  0
   -2.3089    1.6826   -0.7759 C   0  0  0  0  0  0  0  0  0  0  0  0
   -3.2584    2.2851    0.2468 C   0  0  0  0  0  0  0  0  0  0  0  0
   -1.4215    0.5102   -0.3909 C   0  0  0  0  0  0  0  0  0  0  0  0
   -0.4720   -0.0922   -1.4136 C   0  0  0  0  0  0  0  0  0  0  0  0
    2.8402    0.2816    2.2395 C   0  0  0  0  0  0  0  0  0  0  0  0
    3.1753    1.5624    2.9863 C   0  0  0  0  0  0  0  0  0  0  0  0
    4.3012    0.3071    2.2482 C   0  0  0  0  0  0  0  0  0  0  0  0
    5.0582    0.1629    0.9380 C   0  0  0  0  0  0  0  0  0  0  0  0
    4.9709    0.4522    3.3663 C   0  0  0  0  0  0  0  0  0  0  0  0
    6.4906    0.4791    3.3780 C   0  0  0  0  0  0  0  0  0  0  0  0
    4.1013    0.6045    4.7593 C   0  0  0  0  0  0  0  0  0  0  0  0
    4.7831    0.7782    6.1066 C   0  0  0  0  0  0  0  0  0  0  0  0
    2.5453    0.5621    4.6311 C   0  0  0  0  0  0  0  0  0  0  0  0
    1.6591    0.6922    5.8592 C   0  0  0  0  0  0  0  0  0  0  0  0
    2.0238    0.4119    3.4422 C   0  0  0  0  0  0  0  0  0  0  0  0
    0.5103    0.3716    3.3069 C   0  0  0  0  0  0  0  0  0  0  0  0
    3.1116   -0.4656    4.9093 H   0  0  0  0  0  0  0  0  0  0  0  0
    4.8163   -1.9459    6.0126 H   0  0  0  0  0  0  0  0  0  0  0  0
    5.7479   -3.7889    4.7993 H   0  0  0  0  0  0  0  0  0  0  0  0
    5.9898   -3.4818    2.3687 H   0  0  0  0  0  0  0  0  0  0  0  0
    4.6883   -1.7751    1.2239 H   0  0  0  0  0  0  0  0  0  0  0  0
    6.3032    0.0998    1.9579 H   0  0  0  0  0  0  0  0  0  0  0  0
    8.0573    1.8795    1.6928 H   0  0  0  0  0  0  0  0  0  0  0  0
    7.6374    3.7532    0.2611 H   0  0  0  0  0  0  0  0  0  0  0  0
    5.2983    4.5056    0.1100 H   0  0  0  0  0  0  0  0  0  0  0  0
    3.4946    3.0020    0.7450 H   0  0  0  0  0  0  0  0  0  0  0  0
   -2.6481    0.8736    2.4197 H   0  0  0  0  0  0  0  0  0  0  0  0
   -2.6481   -0.8737    2.4197 H   0  0  0  0  0  0  0  0  0  0  0  0
   -1.2453    0.0000    2.9870 H   0  0  0  0  0  0  0  0  0  0  0  0
   -3.2377   -0.8736   -1.8205 H   0  0  0  0  0  0  0  0  0  0  0  0
   -3.2377    0.8737   -1.8205 H   0  0  0  0  0  0  0  0  0  0  0  0
   -2.0428    0.0000   -2.7489 H   0  0  0  0  0  0  0  0  0  0  0  0
   -4.7798    3.2193   -1.0672 H   0  0  0  0  0  0  0  0  0  0  0  0
   -3.5301    4.3311   -0.5619 H   0  0  0  0  0  0  0  0  0  0  0  0
   -4.6293    4.7767   -1.8450 H   0  0  0  0  0  0  0  0  0  0  0  0
   -0.2981    1.6711   -2.7023 H   0  0  0  0  0  0  0  0  0  0  0  0
   -1.5478    0.5593   -3.2076 H   0  0  0  0  0  0  0  0  0  0  0  0
   -1.3973    2.1167   -3.9854 H   0  0  0  0  0  0  0  0  0  0  0  0
   -3.9479    1.5367    0.5776 H   0  0  0  0  0  0  0  0  0  0  0  0
   -2.6982    2.6485    1.0829 H   0  0  0  0  0  0  0  0  0  0  0  0
   -3.7974    3.0941   -0.2001 H   0  0  0  0  0  0  0  0  0  0  0  0
    0.5338   -0.0116   -1.0575 H   0  0  0  0  0  0  0  0  0  0  0  0
   -0.7159   -1.1233   -1.5628 H   0  0  0  0  0  0  0  0  0  0  0  0
   -0.5654    0.4341   -2.3405 H   0  0  0  0  0  0  0  0  0  0  0  0
    3.8072    2.1751    2.3778 H   0  0  0  0  0  0  0  0  0  0  0  0
    2.2726    2.0919    3.2092 H   0  0  0  0  0  0  0  0  0  0  0  0
    3.6820    1.3218    3.8975 H   0  0  0  0  0  0  0  0  0  0  0  0
    5.6586    1.0334    0.7753 H   0  0  0  0  0  0  0  0  0  0  0  0
    5.6876   -0.7012    0.9830 H   0  0  0  0  0  0  0  0  0  0  0  0
    4.3611    0.0548    0.1334 H   0  0  0  0  0  0  0  0  0  0  0  0
    6.8667   -0.4419    2.9838 H   0  0  0  0  0  0  0  0  0  0  0  0
    6.8376    1.2928    2.7760 H   0  0  0  0  0  0  0  0  0  0  0  0
    6.8374    0.6052    4.3823 H   0  0  0  0  0  0  0  0  0  0  0  0
    5.4089   -0.0676    6.3013 H   0  0  0  0  0  0  0  0  0  0  0  0
    5.3788    1.6670    6.0929 H   0  0  0  0  0  0  0  0  0  0  0  0
    4.0417    0.8575    6.8740 H   0  0  0  0  0  0  0  0  0  0  0  0
    1.8761   -0.1030    6.5415 H   0  0  0  0  0  0  0  0  0  0  0  0
    1.8457    1.6319    6.3357 H   0  0  0  0  0  0  0  0  0  0  0  0
    0.6317    0.6393    5.5649 H   0  0  0  0  0  0  0  0  0  0  0  0
    0.1229   -0.4465    3.8774 H   0  0  0  0  0  0  0  0  0  0  0  0
    0.0952    1.2883    3.6706 H   0  0  0  0  0  0  0  0  0  0  0  0
    0.2475    0.2446    2.2775 H   0  0  0  0  0  0  0  0  0  0  0  0
  1  2  1  0  0  0  0
  1  4  1  0  0  0  0
  2  3  1  0  0  0  0
  2  4  1  0  0  0  0
  2  5  1  0  0  0  0
  2 30  1  0  0  0  0
  2 32  1  0  0  0  0
  2 34  1  0  0  0  0
  2 36  1  0  0  0  0
  2 38  1  0  0  0  0
  2 40  1  0  0  0  0
  3  4  1  0  0  0  0
  4  5  1  0  0  0  0
  4 18  1  0  0  0  0
  4 20  1  0  0  0  0
  4 22  1  0  0  0  0
  4 24  1  0  0  0  0
  4 26  1  0  0  0  0
  4 28  1  0  0  0  0
  5  6  1  0  0  0  0
  5 12  1  0  0  0  0
  6  7  1  0  0  0  0
  6 11  2  0  0  0  0
  7  8  2  0  0  0  0
  7 42  1  0  0  0  0
  8  9  1  0  0  0  0
  8 43  1  0  0  0  0
  9 10  2  0  0  0  0
  9 44  1  0  0  0  0
 10 11  1  0  0  0  0
 10 45  1  0  0  0  0
 11 46  1  0  0  0  0
 12 13  1  0  0  0  0
 12 17  2  0  0  0  0
 13 14  2  0  0  0  0
 13 47  1  0  0  0  0
 14 15  1  0  0  0  0
 14 48  1  0  0  0  0
 15 16  2  0  0  0  0
 15 49  1  0  0  0  0
 16 17  1  0  0  0  0
 16 50  1  0  0  0  0
 17 51  1  0  0  0  0
 18 19  1  0  0  0  0
 18 20  1  0  0  0  0
 18 28  2  0  0  0  0
 19 52  1  0  0  0  0
 19 53  1  0  0  0  0
 19 54  1  0  0  0  0
 20 21  1  0  0  0  0
 20 22  2  0  0  0  0
 21 55  1  0  0  0  0
 21 56  1  0  0  0  0
 21 57  1  0  0  0  0
 22 23  1  0  0  0  0
 22 24  1  0  0  0  0
 23 58  1  0  0  0  0
 23 59  1  0  0  0  0
 23 60  1  0  0  0  0
 24 25  1  0  0  0  0
 24 26  2  0  0  0  0
 25 61  1  0  0  0  0
 25 62  1  0  0  0  0
 25 63  1  0  0  0  0
 26 27  1  0  0  0  0
 26 28  1  0  0  0  0
 27 64  1  0  0  0  0
 27 65  1  0  0  0  0
 27 66  1  0  0  0  0
 28 29  1  0  0  0  0
 29 67  1  0  0  0  0
 29 68  1  0  0  0  0
 29 69  1  0  0  0  0
 30 31  1  0  0  0  0
 30 32  1  0  0  0  0
 30 40  2  0  0  0  0
 31 70  1  0  0  0  0
 31 71  1  0  0  0  0
 31 72  1  0  0  0  0
 32 33  1  0  0  0  0
 32 34  2  0  0  0  0
 33 73  1  0  0  0  0
 33 74  1  0  0  0  0
 33 75  1  0  0  0  0
 34 35  1  0  0  0  0
 34 36  1  0  0  0  0
 35 76  1  0  0  0  0
 35 77  1  0  0  0  0
 35 78  1  0  0  0  0
 36 37  1  0  0  0  0
 36 38  2  0  0  0  0
 37 79  1  0  0  0  0
 37 80  1  0  0  0  0
 37 81  1  0  0  0  0
 38 39  1  0  0  0  0
 38 40  1  0  0  0  0
 39 82  1  0  0  0  0
 39 83  1  0  0  0  0
 39 84  1  0  0  0  0
 40 41  1  0  0  0  0
 41 85  1  0  0  0  0
 41 86  1  0  0  0  0
 41 87  1  0  0  0  0
M  CHG  1   5   1
M  END
$$$$
