
  --CCDC--092525    3D                              

 87103  0  0  0  0  0  0  0  0999 V2000
   -0.1567    0.2556   -0.0276 H      0
   -1.9095    0.4708    0.0494 Ru     0
   -1.4661    2.6092   -1.0269 Cl     0
    0.5925    1.8564    0.0388 Ru     0
   -1.1022    2.0011    1.8745 P      3
   -1.8145    3.6633    1.9860 C      0
   -3.0365    3.9901    1.4060 C      0
   -3.5415    5.2756    1.5103 C      0
   -2.8355    6.2481    2.1840 C      0
   -1.6199    5.9404    2.7543 C      0
   -1.1087    4.6572    2.6559 C      0
   -0.4592    1.2755    3.4052 C      0
   -0.8881    1.7684    4.6329 C      0
   -0.4385    1.2007    5.8134 C      0
    0.4326    0.1337    5.7826 C      0
    0.8557   -0.3714    4.5725 C      0
    0.4116    0.1920    3.3878 C      0
    1.6799    3.1328    1.2083 C      0
    2.8357    4.0957    1.4067 C      0
    1.2454    3.7313   -0.1533 C      0
    0.4425    5.0155   -0.1940 C      0
    1.4644    2.9020   -1.4455 C      0
    0.8332    3.3697   -2.7402 C      0
    1.9727    1.4436   -1.3631 C      0
    1.8342    0.5429   -2.5705 C      0
    2.2822    0.8020    0.0139 C      0
    2.4296   -0.7014    0.1092 C      0
    2.1846    1.6644    1.3010 C      0
    3.6743    1.6028    1.5825 C      0
   -3.8957    0.7596    0.4357 C      0
   -5.2919    0.2588    0.7586 C      0
   -3.1848   -0.1650    1.4565 C      0
   -3.2875    0.1415    2.9364 C      0
   -2.2747   -1.2999    0.9392 C      0
   -1.4081   -2.0900    1.8956 C      0
   -1.9892   -1.4403   -0.5787 C      0
   -0.8487   -2.3249   -1.0320 C      0
   -2.5741   -0.4335   -1.5948 C      0
   -2.0023   -0.3459   -2.9930 C      0
   -3.6025    0.6088   -1.0855 C      0
   -4.7703   -0.0322   -1.8110 C      0
   -3.6001    3.2405    0.8648 H      0
   -4.4974    5.5183    1.0580 H      0
   -3.2351    7.2536    2.2640 H      0
   -1.0612    6.7060    3.2823 H      0
   -0.1496    4.4246    3.1067 H      0
   -1.5798    2.6038    4.6661 H      0
   -0.7745    1.5968    6.7660 H      0
    0.7837   -0.3086    6.7091 H      0
    1.5392   -1.2136    4.5476 H      0
    0.7506   -0.2110    2.4394 H      0
    3.5968    3.9649    0.6398 H      0
    3.2972    3.9695    2.3840 H      0
    2.4921    5.1255    1.3525 H      0
    0.4943    5.4683   -1.1819 H      0
    0.8208    5.7378    0.5256 H      0
   -0.6037    4.8331    0.0379 H      0
    0.3714    2.5388   -3.2690 H      0
    1.5821    3.8109   -3.3946 H      0
    0.0631    4.1158   -2.5585 H      0
    0.8564    0.0661   -2.5859 H      0
    2.5919   -0.2379   -2.5581 H      0
    1.9486    1.1115   -3.4910 H      0
    1.4563   -1.1770    0.2077 H      0
    3.0289   -0.9829    0.9721 H      0
    2.9118   -1.0984   -0.7816 H      0
    4.0075    0.5720    1.6746 H      0
    3.9239    2.0989    2.5182 H      0
    4.2469    2.0631    0.7797 H      0
   -6.0494    0.7988    0.1942 H      0
   -5.5276    0.4078    1.8096 H      0
   -5.3890   -0.8039    0.5455 H      0
   -4.2052   -0.2778    3.3435 H      0
   -3.3089    1.2140    3.1163 H      0
   -2.4568   -0.2845    3.4917 H      0
   -1.3930   -3.1404    1.6121 H      0
   -1.7793   -2.0273    2.9154 H      0
   -0.3833   -1.7280    1.8778 H      0
   -1.0498   -2.7342   -2.0197 H      0
   -0.7040   -3.1564   -0.3455 H      0
    0.0799   -1.7608   -1.0836 H      0
   -1.7149   -1.3310   -3.3545 H      0
   -1.1210    0.2918   -3.0101 H      0
   -2.7339    0.0684   -3.6836 H      0
   -4.5500   -0.1364   -2.8710 H      0
   -5.6703    0.5741   -1.7318 H      0
   -4.9819   -1.0258   -1.4208 H      0
  1  2  1
  2  3  1
  3  4  1
  1  4  1
  2  4  1
  4  5  1
  2  5  1
  5  6  1
  6  7  4
  7  8  4
  8  9  4
  9 10  4
 10 11  4
  6 11  4
  5 12  1
 12 13  4
 13 14  4
 14 15  4
 15 16  4
 16 17  4
 12 17  4
  4 18  1
 18 19  1
 18 20  4
  4 20  1
 20 21  1
 20 22  4
  4 22  1
 22 23  1
 22 24  4
  4 24  1
 24 25  1
 24 26  4
  4 26  1
 26 27  1
 26 28  4
  4 28  1
 18 28  4
 28 29  1
  2 30  1
 30 31  1
 30 32  4
  2 32  1
 32 33  1
 32 34  4
  2 34  1
 34 35  1
 34 36  4
  2 36  1
 36 37  1
 36 38  4
  2 38  1
 38 39  1
 38 40  4
  2 40  1
 30 40  4
 40 41  1
  7 42  1
  8 43  1
  9 44  1
 10 45  1
 11 46  1
 13 47  1
 14 48  1
 15 49  1
 16 50  1
 17 51  1
 19 52  1
 19 53  1
 19 54  1
 21 55  1
 21 56  1
 21 57  1
 23 58  1
 23 59  1
 23 60  1
 25 61  1
 25 62  1
 25 63  1
 27 64  1
 27 65  1
 27 66  1
 29 67  1
 29 68  1
 29 69  1
 31 70  1
 31 71  1
 31 72  1
 33 73  1
 33 74  1
 33 75  1
 35 76  1
 35 77  1
 35 78  1
 37 79  1
 37 80  1
 37 81  1
 39 82  1
 39 83  1
 39 84  1
 41 85  1
 41 86  1
 41 87  1
M  CHG  1   5   1
M  END
$$$$
