
 OpenBabel09252519293D

 87103  0  0  1  0  0  0  0  0999 V2000
    0.9263    0.0136    0.0662 H   0  0  0  0  0  0  0  0  0  0  0  0
    1.9963    0.0136    0.0662 C   0  0  0  0  0  3  0  0  0  0  0  0
    2.5086   -1.3694   -0.3429 C   0  0  0  0  0  3  0  0  0  0  0  0
    2.1194   -2.1067    0.3277 H   0  0  0  0  0  0  0  0  0  0  0  0
    2.0783   -1.6615   -1.6741 C   0  0  0  0  0  3  0  0  0  0  0  0
    2.4186   -2.6433   -1.9295 H   0  0  0  0  0  0  0  0  0  0  0  0
    2.5658   -0.7475   -2.6581 C   0  0  0  0  0  3  0  0  0  0  0  0
    4.3957   -0.7517   -2.6416 P   0  3  0  0  0  0  0  0  0  0  0  0
    5.0052   -2.4356   -3.0182 C   0  0  0  0  0  3  0  0  0  0  0  0
    3.9225   -2.7260   -1.9762 C   0  0  0  0  0  3  0  0  0  0  0  0
    3.8924   -1.9301   -1.2616 H   0  0  0  0  0  0  0  0  0  0  0  0
    2.6536   -2.8319   -2.6253 C   0  0  0  0  0  3  0  0  0  0  0  0
    1.9071   -3.0030   -1.8781 H   0  0  0  0  0  0  0  0  0  0  0  0
    2.5766   -3.8864   -3.5863 C   0  0  0  0  0  3  0  0  0  0  0  0
    2.7821   -4.8210   -3.1077 H   0  0  0  0  0  0  0  0  0  0  0  0
    3.6049   -3.6429   -4.6934 C   0  0  0  0  0  3  0  0  0  0  0  0
    3.5779   -4.4532   -5.3917 H   0  0  0  0  0  0  0  0  0  0  0  0
    5.0013   -3.5493   -4.0705 C   0  0  0  0  0  3  0  0  0  0  0  0
    5.2505   -4.4812   -3.6073 H   0  0  0  0  0  0  0  0  0  0  0  0
    5.2586    0.8668   -4.3842 Ru  0  0  0  0  0  0  0  0  0  0  0  0
    4.0502    2.0423   -3.8448 H   0  0  0  0  0  0  0  0  0  0  0  0
    1.9737    0.2850   -8.0546 Ru  0  0  0  0  0  0  0  0  0  0  0  0
    3.6161    0.5759   -6.2194 Cl  0  0  0  0  0  2  0  0  0  0  0  0
    2.4570    2.7101   -7.7227 C   0  0  2  0  0  0  0  0  0  0  0  0
    2.1714    4.2030   -7.7163 C   0  0  0  0  0  0  0  0  0  0  0  0
    2.8546    4.6940   -7.0552 H   0  0  0  0  0  0  0  0  0  0  0  0
    2.2899    4.5930   -8.7056 H   0  0  0  0  0  0  0  0  0  0  0  0
    1.1688    4.3729   -7.3837 H   0  0  0  0  0  0  0  0  0  0  0  0
    1.9004    1.4469   -7.0585 C   0  0  2  0  0  0  0  0  0  0  0  0
    2.7249    1.1139   -5.8258 C   0  0  0  0  0  0  0  0  0  0  0  0
    3.7423    0.9465   -6.1118 H   0  0  0  0  0  0  0  0  0  0  0  0
    2.6782    1.9293   -5.1345 H   0  0  0  0  0  0  0  0  0  0  0  0
    2.3346    0.2314   -5.3633 H   0  0  0  0  0  0  0  0  0  0  0  0
    4.2932   -0.2509   -7.3216 C   0  0  2  0  0  0  0  0  0  0  0  0
    4.2212    0.8612   -6.2879 C   0  0  0  0  0  0  0  0  0  0  0  0
    4.5708    1.7746   -6.7218 H   0  0  0  0  0  0  0  0  0  0  0  0
    3.2081    0.9840   -5.9661 H   0  0  0  0  0  0  0  0  0  0  0  0
    4.8339    0.6077   -5.4481 H   0  0  0  0  0  0  0  0  0  0  0  0
    3.4228    0.1091   -8.5146 C   0  0  2  0  0  0  0  0  0  0  0  0
    3.4951   -1.0032   -9.5480 C   0  0  0  0  0  0  0  0  0  0  0  0
    2.8823   -0.7502  -10.3878 H   0  0  0  0  0  0  0  0  0  0  0  0
    4.5081   -1.1259   -9.8697 H   0  0  0  0  0  0  0  0  0  0  0  0
    3.1457   -1.9167   -9.1139 H   0  0  0  0  0  0  0  0  0  0  0  0
    3.8894    1.3292   -9.0943 C   0  0  2  0  0  0  0  0  0  0  0  0
    4.7798    1.7332  -10.2581 C   0  0  0  0  0  0  0  0  0  0  0  0
    5.7590    1.3259  -10.1161 H   0  0  0  0  0  0  0  0  0  0  0  0
    4.3662    1.3576  -11.1707 H   0  0  0  0  0  0  0  0  0  0  0  0
    4.8409    2.8003  -10.3067 H   0  0  0  0  0  0  0  0  0  0  0  0
    3.8874    2.4399   -8.1955 C   0  0  1  0  0  0  0  0  0  0  0  0
    5.0391    3.4123   -7.9998 C   0  0  0  0  0  0  0  0  0  0  0  0
    5.9039    2.8782   -7.6653 H   0  0  0  0  0  0  0  0  0  0  0  0
    5.2570    3.8985   -8.9277 H   0  0  0  0  0  0  0  0  0  0  0  0
    4.7673    4.1446   -7.2686 H   0  0  0  0  0  0  0  0  0  0  0  0
    5.4523    2.6626   -2.6629 C   0  0  2  0  0  0  0  0  0  0  0  0
    5.8733    4.0041   -2.0854 C   0  0  0  0  0  0  0  0  0  0  0  0
    5.2347    4.2552   -1.2644 H   0  0  0  0  0  0  0  0  0  0  0  0
    6.8857    3.9437   -1.7443 H   0  0  0  0  0  0  0  0  0  0  0  0
    5.7959    4.7578   -2.8410 H   0  0  0  0  0  0  0  0  0  0  0  0
    4.6169    2.1468   -3.8388 C   0  0  2  0  0  0  0  0  0  0  0  0
    3.2035    1.8469   -3.3667 C   0  0  0  0  0  0  0  0  0  0  0  0
    3.2344    1.1025   -2.5988 H   0  0  0  0  0  0  0  0  0  0  0  0
    2.7596    2.7403   -2.9797 H   0  0  0  0  0  0  0  0  0  0  0  0
    2.6216    1.4869   -4.1893 H   0  0  0  0  0  0  0  0  0  0  0  0
    3.9767   -0.5176   -2.7579 C   0  0  2  0  0  0  0  0  0  0  0  0
    3.2867    0.7337   -2.2397 C   0  0  0  0  0  0  0  0  0  0  0  0
    3.8572    1.1483   -1.4350 H   0  0  0  0  0  0  0  0  0  0  0  0
    3.2099    1.4516   -3.0294 H   0  0  0  0  0  0  0  0  0  0  0  0
    2.3073    0.4821   -1.8900 H   0  0  0  0  0  0  0  0  0  0  0  0
    5.3680   -0.1601   -3.2547 C   0  0  2  0  0  0  0  0  0  0  0  0
    6.0577   -1.4117   -3.7727 C   0  0  0  0  0  0  0  0  0  0  0  0
    7.0371   -1.1603   -4.1227 H   0  0  0  0  0  0  0  0  0  0  0  0
    6.1345   -2.1294   -2.9829 H   0  0  0  0  0  0  0  0  0  0  0  0
    5.4870   -1.8263   -4.5772 H   0  0  0  0  0  0  0  0  0  0  0  0
    6.1303    0.3938   -2.1801 C   0  0  2  0  0  0  0  0  0  0  0  0
    7.1608   -0.1054   -1.1806 C   0  0  0  0  0  0  0  0  0  0  0  0
    6.7336   -0.8873   -0.5881 H   0  0  0  0  0  0  0  0  0  0  0  0
    8.0140   -0.4813   -1.7056 H   0  0  0  0  0  0  0  0  0  0  0  0
    7.4605    0.7011   -0.5443 H   0  0  0  0  0  0  0  0  0  0  0  0
    5.5543    1.5658   -1.6003 C   0  0  2  0  0  0  0  0  0  0  0  0
    5.3854    1.8153   -0.1105 C   0  0  0  0  0  0  0  0  0  0  0  0
    4.7663    1.0512    0.3112 H   0  0  0  0  0  0  0  0  0  0  0  0
    6.3440    1.8003    0.3646 H   0  0  0  0  0  0  0  0  0  0  0  0
    4.9269    2.7701    0.0415 H   0  0  0  0  0  0  0  0  0  0  0  0
    2.0558    0.6606   -2.3427 C   0  0  0  0  0  3  0  0  0  0  0  0
    2.4541    1.3535   -3.0541 H   0  0  0  0  0  0  0  0  0  0  0  0
    2.5092    1.0552   -0.9336 C   0  0  0  0  0  3  0  0  0  0  0  0
    3.5780    1.0910   -0.8976 H   0  0  0  0  0  0  0  0  0  0  0  0
  1  2  1  0  0  0  0
  2  3  1  0  0  0  0
  2 86  1  0  0  0  0
  3  4  1  0  0  0  0
  3  5  1  0  0  0  0
  5  6  1  0  0  0  0
  5  7  1  0  0  0  0
  7  8  1  0  0  0  0
  7 84  1  0  0  0  0
  8  9  1  0  0  0  0
  8 20  1  0  0  0  0
  8 22  1  0  0  0  0
  9 10  1  0  0  0  0
  9 18  1  0  0  0  0
 10 11  1  0  0  0  0
 10 12  1  0  0  0  0
 12 13  1  0  0  0  0
 12 14  1  0  0  0  0
 14 15  1  0  0  0  0
 14 16  1  0  0  0  0
 16 17  1  0  0  0  0
 16 18  1  0  0  0  0
 18 19  1  0  0  0  0
 20 21  1  0  0  0  0
 20 22  1  0  0  0  0
 20 23  1  0  0  0  0
 20 54  1  0  0  0  0
 20 59  1  0  0  0  0
 20 64  1  0  0  0  0
 20 69  1  0  0  0  0
 20 74  1  0  0  0  0
 20 79  1  0  0  0  0
 21 22  1  0  0  0  0
 22 23  1  0  0  0  0
 22 24  1  0  0  0  0
 22 29  1  0  0  0  0
 22 34  1  0  0  0  0
 22 39  1  0  0  0  0
 22 44  1  0  0  0  0
 22 49  1  0  0  0  0
 24 25  1  1  0  0  0
 24 29  1  0  0  0  0
 24 49  1  0  0  0  0
 25 26  1  0  0  0  0
 25 27  1  0  0  0  0
 25 28  1  0  0  0  0
 29 30  1  6  0  0  0
 29 34  1  0  0  0  0
 30 31  1  0  0  0  0
 30 32  1  0  0  0  0
 30 33  1  0  0  0  0
 34 35  1  6  0  0  0
 34 39  1  0  0  0  0
 35 36  1  0  0  0  0
 35 37  1  0  0  0  0
 35 38  1  0  0  0  0
 39 40  1  1  0  0  0
 39 44  1  0  0  0  0
 40 41  1  0  0  0  0
 40 42  1  0  0  0  0
 40 43  1  0  0  0  0
 44 45  1  1  0  0  0
 44 49  1  0  0  0  0
 45 46  1  0  0  0  0
 45 47  1  0  0  0  0
 45 48  1  0  0  0  0
 49 50  1  6  0  0  0
 50 51  1  0  0  0  0
 50 52  1  0  0  0  0
 50 53  1  0  0  0  0
 54 55  1  1  0  0  0
 54 59  1  0  0  0  0
 54 79  1  0  0  0  0
 55 56  1  0  0  0  0
 55 57  1  0  0  0  0
 55 58  1  0  0  0  0
 59 60  1  1  0  0  0
 59 64  1  0  0  0  0
 60 61  1  0  0  0  0
 60 62  1  0  0  0  0
 60 63  1  0  0  0  0
 64 65  1  6  0  0  0
 64 69  1  0  0  0  0
 65 66  1  0  0  0  0
 65 67  1  0  0  0  0
 65 68  1  0  0  0  0
 69 70  1  1  0  0  0
 69 74  1  0  0  0  0
 70 71  1  0  0  0  0
 70 72  1  0  0  0  0
 70 73  1  0  0  0  0
 74 75  1  6  0  0  0
 74 79  1  0  0  0  0
 75 76  1  0  0  0  0
 75 77  1  0  0  0  0
 75 78  1  0  0  0  0
 79 80  1  1  0  0  0
 80 81  1  0  0  0  0
 80 82  1  0  0  0  0
 80 83  1  0  0  0  0
 84 85  1  0  0  0  0
 84 86  1  0  0  0  0
 86 87  1  0  0  0  0
M  CHG  1   8   1
M  END
$$$$
