
  --CCDC--092525    3D                              

 32 34  0  0  0  0  0  0  0  0999 V2000
    0.0160   -0.1399    0.0130 C      0
    1.4489    0.0039   -0.5103 C      0
    2.2450   -1.2190   -0.1624 C      0
    2.7677   -2.0683   -1.0047 C      0
    2.1194    1.2607    0.0741 C      0
    1.8952    1.1953    1.5297 N      0
    2.6335    0.4192    2.1449 N      0
    3.2391   -0.2998    2.9403 N      0
    1.5450    2.5375   -0.5064 C      0
    0.6896    3.3903   -1.3083 C      0
    0.5031    5.0122   -1.5686 C      0
    1.1224    6.2419   -1.0956 C      0
    1.3961    7.7228   -0.9345 C      0
    2.0781    4.5786   -0.1636 Fe     0
    1.8965    5.5267    1.8125 C      0
    1.8024    6.0181    2.8366 O      0
    4.0957    5.2857   -0.6827 C      0
    5.1406    5.6519   -0.9516 O      0
    3.5801    3.7899    1.2371 C      0
    4.3514    3.3778    1.9678 O      0
   -0.5673    0.7521   -0.2059 H      0
    0.0107   -0.2911    1.0905 H      0
   -0.4823   -0.9899   -0.4489 H      0
    1.4117    0.0990   -1.6066 H      0
    2.4013   -1.4174    0.8928 H      0
    2.6419   -1.9209   -2.0723 H      0
    3.3283   -2.9216   -0.6374 H      0
    3.1999    1.2212   -0.1336 H      0
    0.7251    8.3105   -1.5575 H      0
    2.4190    7.9622   -1.2182 H      0
    1.2529    8.0318    0.0993 H      0
    3.7215    0.2369    3.6587 H      0
  1  2  1
  2  3  1
  3  4  2
  2  5  1
  5  6  1
  6  7  2
  7  8  2
  5  9  1
  9 10  2
 10 11  1
 11 12  2
 12 13  1
 12 14  1
  9 14  1
 10 14  1
 11 14  1
 14 15  1
 15 16  3
 14 17  1
 17 18  3
 14 19  1
 19 20  3
  1 21  1
  1 22  1
  1 23  1
  2 24  1
  3 25  1
  4 26  1
  4 27  1
  5 28  1
 13 29  1
 13 30  1
 13 31  1
  8 32  1
M  END
$$$$
