
     RDKit          3D

 32 35  0  0  0  0  0  0  0  0999 V2000
   -1.0344   -3.6784    0.8625 O   0  0  0  0  0  0  0  0  0  0  0  0
   -1.1407   -2.4704    0.6719 C   0  0  0  0  0  0  0  0  0  0  0  0
   -2.3468   -1.8482    0.7909 N   0  0  0  0  0  0  0  0  0  0  0  0
   -2.5108   -0.4667    0.6977 C   0  0  0  0  0  0  0  0  0  0  0  0
   -3.7652    0.0801    0.9857 C   0  0  0  0  0  0  0  0  0  0  0  0
   -3.9274    1.4623    1.0090 C   0  0  0  0  0  0  0  0  0  0  0  0
   -2.8334    2.2874    0.7680 C   0  0  0  0  0  0  0  0  0  0  0  0
   -1.5844    1.7311    0.4696 C   0  0  0  0  0  0  0  0  0  0  0  0
   -1.4092    0.3419    0.3814 C   0  0  0  0  0  0  0  0  0  0  0  0
   -0.1053   -0.2967    0.0357 C   0  0  0  0  0  0  0  0  0  0  0  0
    0.0224   -1.6258    0.2727 C   0  0  0  0  0  0  0  0  0  0  0  0
    1.3386   -2.3565    0.1604 C   0  0  0  0  0  0  0  0  0  0  0  0
    2.5134   -1.4262    0.4687 C   0  0  0  0  0  0  0  0  0  0  0  0
    2.3819   -0.1630   -0.3381 C   0  0  0  0  0  0  0  0  0  0  0  0
    3.5211    0.4656   -0.8606 C   0  0  0  0  0  0  0  0  0  0  0  0
    3.3888    1.5857   -1.6761 C   0  0  0  0  0  0  0  0  0  0  0  0
    2.1215    2.0698   -1.9842 C   0  0  0  0  0  0  0  0  0  0  0  0
    0.9856    1.4560   -1.4475 C   0  0  0  0  0  0  0  0  0  0  0  0
    1.0949    0.3627   -0.5759 C   0  0  0  0  0  0  0  0  0  0  0  0
   -3.1196   -2.4406    1.0607 H   0  0  0  0  0  0  0  0  0  0  0  0
   -4.6128   -0.5593    1.2155 H   0  0  0  0  0  0  0  0  0  0  0  0
   -4.8969    1.8949    1.2416 H   0  0  0  0  0  0  0  0  0  0  0  0
   -2.9454    3.3679    0.8205 H   0  0  0  0  0  0  0  0  0  0  0  0
   -0.7489    2.4119    0.3328 H   0  0  0  0  0  0  0  0  0  0  0  0
    1.3900   -3.1976    0.8614 H   0  0  0  0  0  0  0  0  0  0  0  0
    1.4290   -2.7704   -0.8521 H   0  0  0  0  0  0  0  0  0  0  0  0
    3.4504   -1.9443    0.2335 H   0  0  0  0  0  0  0  0  0  0  0  0
    2.5345   -1.1666    1.5345 H   0  0  0  0  0  0  0  0  0  0  0  0
    4.5127    0.0705   -0.6526 H   0  0  0  0  0  0  0  0  0  0  0  0
    4.2715    2.0647   -2.0915 H   0  0  0  0  0  0  0  0  0  0  0  0
    2.0128    2.9222   -2.6501 H   0  0  0  0  0  0  0  0  0  0  0  0
    0.0121    1.8360   -1.7462 H   0  0  0  0  0  0  0  0  0  0  0  0
  1  2  2  0
  2  3  1  0
  3  4  1  0
  4  5  2  0
  5  6  1  0
  6  7  2  0
  7  8  1  0
  8  9  2  0
  9 10  1  0
 10 11  2  0
 11 12  1  0
 12 13  1  0
 13 14  1  0
 14 15  2  0
 15 16  1  0
 16 17  2  0
 17 18  1  0
 18 19  2  0
 11  2  1  0
 19 14  1  0
  9  4  1  0
 19 10  1  0
  3 20  1  0
  5 21  1  0
  6 22  1  0
  7 23  1  0
  8 24  1  0
 12 25  1  0
 12 26  1  0
 13 27  1  0
 13 28  1  0
 15 29  1  0
 16 30  1  0
 17 31  1  0
 18 32  1  0
M  END
