
  --CCDC--092525    3D                              

 76 82  0  0  0  0  0  0  0  0999 V2000
   -7.7864   -4.1224   -2.8214 H      0
   -7.0043   -3.6732   -2.2183 C      0
   -6.1397   -4.4628   -1.4988 C      0
   -6.2434   -5.5424   -1.5297 H      0
   -5.1426   -3.8894   -0.7276 C      0
   -4.5170   -4.5471   -0.1398 H      0
   -4.9538   -2.5037   -0.6617 C      0
   -3.5787   -1.7799    0.3037 P      0
   -4.1021   -0.0368    0.3482 C      0
   -3.3533    1.0535   -0.1077 C      0
   -2.4166    0.8977   -0.6242 H      0
   -3.8060    2.3530    0.0513 C      0
   -3.2023    3.1807   -0.3060 H      0
   -5.0190    2.6024    0.6519 C      0
   -5.3700    3.6220    0.7726 H      0
   -5.7848    1.5486    1.0949 C      0
   -6.7448    1.7372    1.5638 H      0
   -5.3319    0.2484    0.9484 C      0
   -5.9444   -0.5693    1.3139 H      0
   -3.4306   -3.0187    1.6199 C      0
   -4.4817   -3.6916    2.2503 C      0
   -5.4794   -3.6469    1.8262 H      0
   -4.2662   -4.4012    3.4208 C      0
   -5.0880   -4.9378    3.8833 H      0
   -3.0225   -4.4164    4.0122 C      0
   -2.8686   -4.9593    4.9389 H      0
   -1.9695   -3.7391    3.4238 C      0
   -0.9891   -3.7454    3.8887 H      0
   -2.1702   -3.0644    2.2208 C      0
   -1.1464   -2.3338    1.3879 C      0
    0.0070   -1.9049    1.8005 N      0
    0.5345   -1.3574    0.6218 C      0
    1.8264   -1.5415    0.1289 C      0
    2.6015   -1.9622    0.7609 H      0
    2.0961   -1.2281   -1.2141 C      0
    3.1138   -1.3552   -1.5682 H      0
    1.1269   -0.8319   -2.1428 C      0
    1.3708   -0.7261   -3.1947 H      0
   -0.1219   -0.4989   -1.6671 C      0
   -0.8179    0.1262   -2.1878 H      0
    0.0026   -0.5718   -0.3578 C      0
   -0.8448   -0.0641   -0.0868 H      0
   -1.3513   -1.7283   -0.4225 Co     0
   -2.2909   -1.7877   -2.6061 P      0
   -2.6571   -3.4603   -3.1880 C      0
   -3.3081   -3.3955   -4.0573 H      0
   -3.1849   -4.0443   -2.4423 H      0
   -1.7723   -3.9899   -3.5218 H      0
   -3.1854   -0.2241   -2.8225 C      0
   -4.0830   -0.1968   -2.2201 H      0
   -3.4994   -0.1237   -3.8594 H      0
   -2.5966    0.6543   -2.5767 H      0
   -1.2801   -1.4087   -4.0703 C      0
   -0.2629   -1.7738   -3.9938 H      0
   -1.2279   -0.3344   -4.2324 H      0
   -1.7268   -1.8493   -4.9592 H      0
   -0.5367   -3.8977   -0.8652 P      0
    0.5849   -3.9113   -2.2857 C      0
    0.1604   -3.4159   -3.1475 H      0
    0.7728   -4.9426   -2.5769 H      0
    1.5522   -3.4821   -2.0681 H      0
    0.6327   -4.5210    0.3713 C      0
    1.5998   -4.0344    0.3111 H      0
    0.8025   -5.5839    0.2126 H      0
    0.2471   -4.4010    1.3810 H      0
   -1.8314   -5.0172   -0.2811 C      0
   -1.5804   -6.0345   -0.5739 H      0
   -1.9375   -5.0320    0.7946 H      0
   -2.7837   -4.7843   -0.7339 H      0
   -5.8638   -1.7308   -1.3995 C      0
   -5.7950   -0.6501   -1.3992 H      0
   -6.8681   -2.3068   -2.1599 C      0
   -7.5507   -1.6739   -2.7173 H      0
   -3.8181   -1.2936    1.5945 H      0
   -3.6685   -1.9915   -2.6198 H      0
   -1.1079   -4.6965   -1.8518 H      0
  1  2  1
  2  3  4
  3  4  1
  3  5  4
  5  6  1
  5  7  4
  7  8  1
  8  9  1
  9 10  4
 10 11  1
 10 12  4
 12 13  1
 12 14  4
 14 15  1
 14 16  4
 16 17  1
 16 18  4
  9 18  4
 18 19  1
  8 20  1
 20 21  4
 21 22  1
 21 23  4
 23 24  1
 23 25  4
 25 26  1
 25 27  4
 27 28  1
 27 29  4
 20 29  4
 29 30  1
 30 31  2
 31 32  1
 32 33  4
 33 34  1
 33 35  4
 35 36  1
 35 37  4
 37 38  1
 37 39  4
 39 40  1
 39 41  4
 32 41  4
 41 42  1
 42 43  1
 30 43  1
 41 43  1
  8 43  1
 43 44  1
 44 45  1
 45 46  1
 45 47  1
 45 48  1
 44 49  1
 49 50  1
 49 51  1
 49 52  1
 44 53  1
 53 54  1
 53 55  1
 53 56  1
 43 57  1
 57 58  1
 58 59  1
 58 60  1
 58 61  1
 57 62  1
 62 63  1
 62 64  1
 62 65  1
 57 66  1
 66 67  1
 66 68  1
 66 69  1
  7 70  4
 70 71  1
 70 72  4
  2 72  4
 72 73  1
  8 74  1
 44 75  1
 57 76  1
M  END
$$$$
