
 OpenBabel09252514553D

 76 82  0  0  1  0  0  0  0  0999 V2000
    0.9035    0.0236   -0.0114 H   0  0  0  0  0  0  0  0  0  0  0  0
    1.9735    0.0236   -0.0114 C   0  0  0  0  0  3  0  0  0  0  0  0
    2.4857   -1.3594   -0.4205 C   0  0  0  0  0  3  0  0  0  0  0  0
    2.0966   -2.0967    0.2501 H   0  0  0  0  0  0  0  0  0  0  0  0
    2.0555   -1.6515   -1.7517 C   0  0  0  0  0  3  0  0  0  0  0  0
    2.3958   -2.6333   -2.0071 H   0  0  0  0  0  0  0  0  0  0  0  0
    2.5429   -0.7375   -2.7357 C   0  0  0  0  0  3  0  0  0  0  0  0
    4.3729   -0.7417   -2.7192 P   0  0  0  0  0  0  0  0  0  0  0  0
    4.3670    0.7690   -1.6864 C   0  0  0  0  0  3  0  0  0  0  0  0
    3.6496    1.8986   -2.4291 C   0  0  0  0  0  3  0  0  0  0  0  0
    4.1338    2.0727   -3.3672 H   0  0  0  0  0  0  0  0  0  0  0  0
    2.2880    1.5287   -2.6569 C   0  0  0  0  0  3  0  0  0  0  0  0
    1.8129    2.3161   -3.2040 H   0  0  0  0  0  0  0  0  0  0  0  0
    1.5391    1.2969   -1.4624 C   0  0  0  0  0  3  0  0  0  0  0  0
    1.5451    2.1814   -0.8603 H   0  0  0  0  0  0  0  0  0  0  0  0
    2.1712    0.1430   -0.6806 C   0  0  0  0  0  3  0  0  0  0  0  0
    1.6370   -0.0045    0.2347 H   0  0  0  0  0  0  0  0  0  0  0  0
    3.6320    0.4857   -0.3721 C   0  0  0  0  0  3  0  0  0  0  0  0
    3.6724    1.3516    0.2552 H   0  0  0  0  0  0  0  0  0  0  0  0
    4.3897   -0.6026   -4.5438 C   0  0  0  0  0  3  0  0  0  0  0  0
    3.6647   -1.8035   -5.1558 C   0  0  0  0  0  3  0  0  0  0  0  0
    4.1346   -2.7079   -4.8302 H   0  0  0  0  0  0  0  0  0  0  0  0
    2.2984   -1.7987   -4.7366 C   0  0  0  0  0  3  0  0  0  0  0  0
    1.8175   -2.6614   -5.1481 H   0  0  0  0  0  0  0  0  0  0  0  0
    1.5676   -0.6405   -5.1439 C   0  0  0  0  0  3  0  0  0  0  0  0
    1.5863   -0.5639   -6.2110 H   0  0  0  0  0  0  0  0  0  0  0  0
    2.2078    0.6074   -4.5314 C   0  0  0  0  0  3  0  0  0  0  0  0
    1.6876    1.4793   -4.8692 H   0  0  0  0  0  0  0  0  0  0  0  0
    3.6746    0.6848   -4.9666 C   0  0  0  0  0  3  0  0  0  0  0  0
    3.7504    0.8372   -6.4770 C   0  0  0  0  0  0  0  0  0  0  0  0
    4.9209    0.9236   -7.0716 N   0  0  0  0  0  0  0  0  0  0  0  0
    4.9942    1.0709   -8.5323 C   0  0  0  0  0  3  0  0  0  0  0  0
    3.6016    0.8791   -9.1374 C   0  0  0  0  0  3  0  0  0  0  0  0
    3.2223   -0.0828   -8.8620 H   0  0  0  0  0  0  0  0  0  0  0  0
    2.7251    1.8955   -8.6461 C   0  0  0  0  0  3  0  0  0  0  0  0
    1.7510    1.7256   -9.0548 H   0  0  0  0  0  0  0  0  0  0  0  0
    3.1274    3.2246   -8.9823 C   0  0  0  0  0  3  0  0  0  0  0  0
    3.1831    3.3221  -10.0464 H   0  0  0  0  0  0  0  0  0  0  0  0
    4.5009    3.5113   -8.3709 C   0  0  0  0  0  3  0  0  0  0  0  0
    4.8226    4.4910   -8.6567 H   0  0  0  0  0  0  0  0  0  0  0  0
    5.5047    2.4728   -8.8812 C   0  0  1  0  0  0  0  0  0  0  0  0
    5.6063    2.5636   -9.9425 H   0  0  0  0  0  0  0  0  0  0  0  0
    4.3589   -2.8423   -1.7110 Co  0  0  0  0  0  0  0  0  0  0  0  0
    6.6888   -2.8477   -1.6899 P   0  0  0  0  0  0  0  0  0  0  0  0
    6.7057   -2.1648   -3.3876 C   0  0  0  0  0  0  0  0  0  0  0  0
    5.8348   -1.5617   -3.5382 H   0  0  0  0  0  0  0  0  0  0  0  0
    7.5820   -1.5658   -3.5224 H   0  0  0  0  0  0  0  0  0  0  0  0
    6.7103   -2.9677   -4.0950 H   0  0  0  0  0  0  0  0  0  0  0  0
    6.6783   -1.7187   -0.2496 C   0  0  0  0  0  0  0  0  0  0  0  0
    5.7989   -1.8936    0.3343 H   0  0  0  0  0  0  0  0  0  0  0  0
    7.5462   -1.8977    0.3501 H   0  0  0  0  0  0  0  0  0  0  0  0
    6.6838   -0.7047   -0.5912 H   0  0  0  0  0  0  0  0  0  0  0  0
    6.6822   -4.6594   -1.4324 C   0  0  0  0  0  0  0  0  0  0  0  0
    7.1929   -5.1367   -2.2426 H   0  0  0  0  0  0  0  0  0  0  0  0
    7.1778   -4.8908   -0.5127 H   0  0  0  0  0  0  0  0  0  0  0  0
    5.6722   -5.0102   -1.3913 H   0  0  0  0  0  0  0  0  0  0  0  0
    4.3422   -1.8340    0.3895 P   0  0  0  0  0  0  0  0  0  0  0  0
    6.1111   -2.2509    0.6037 C   0  0  0  0  0  0  0  0  0  0  0  0
    6.5913   -2.2703   -0.3523 H   0  0  0  0  0  0  0  0  0  0  0  0
    6.5788   -1.5142    1.2228 H   0  0  0  0  0  0  0  0  0  0  0  0
    6.1976   -3.2121    1.0658 H   0  0  0  0  0  0  0  0  0  0  0  0
    3.8635   -0.2432   -0.3779 C   0  0  0  0  0  0  0  0  0  0  0  0
    3.2896   -0.4316   -1.2612 H   0  0  0  0  0  0  0  0  0  0  0  0
    3.2771    0.3245    0.3140 H   0  0  0  0  0  0  0  0  0  0  0  0
    4.7438    0.3078   -0.6354 H   0  0  0  0  0  0  0  0  0  0  0  0
    3.0519   -3.0079    0.9427 C   0  0  0  0  0  0  0  0  0  0  0  0
    3.4164   -3.5718    1.7758 H   0  0  0  0  0  0  0  0  0  0  0  0
    2.1773   -2.4651    1.2347 H   0  0  0  0  0  0  0  0  0  0  0  0
    2.8077   -3.6733    0.1411 H   0  0  0  0  0  0  0  0  0  0  0  0
    2.0330    0.6706   -2.4203 C   0  0  0  0  0  3  0  0  0  0  0  0
    2.4313    1.3635   -3.1317 H   0  0  0  0  0  0  0  0  0  0  0  0
    2.4863    1.0652   -1.0112 C   0  0  0  0  0  3  0  0  0  0  0  0
    3.5551    1.1010   -0.9752 H   0  0  0  0  0  0  0  0  0  0  0  0
    5.7528   -0.7449   -2.7067 H   0  0  0  0  0  0  0  0  0  0  0  0
    8.0687   -2.8508   -1.6774 H   0  0  0  0  0  0  0  0  0  0  0  0
    4.3323   -1.2368    1.6336 H   0  0  0  0  0  0  0  0  0  0  0  0
  1  2  1  0  0  0  0
  2  3  1  0  0  0  0
  2 72  1  0  0  0  0
  3  4  1  0  0  0  0
  3  5  1  0  0  0  0
  5  6  1  0  0  0  0
  5  7  1  0  0  0  0
  7  8  1  0  0  0  0
  7 70  1  0  0  0  0
  8  9  1  0  0  0  0
  8 20  1  0  0  0  0
  8 43  1  0  0  0  0
  8 74  1  0  0  0  0
  9 10  1  0  0  0  0
  9 18  1  0  0  0  0
 10 11  1  0  0  0  0
 10 12  1  0  0  0  0
 12 13  1  0  0  0  0
 12 14  1  0  0  0  0
 14 15  1  0  0  0  0
 14 16  1  0  0  0  0
 16 17  1  0  0  0  0
 16 18  1  0  0  0  0
 18 19  1  0  0  0  0
 20 21  1  0  0  0  0
 20 29  1  0  0  0  0
 21 22  1  0  0  0  0
 21 23  1  0  0  0  0
 23 24  1  0  0  0  0
 23 25  1  0  0  0  0
 25 26  1  0  0  0  0
 25 27  1  0  0  0  0
 27 28  1  0  0  0  0
 27 29  1  0  0  0  0
 29 30  1  0  0  0  0
 30 31  2  0  0  0  0
 30 43  1  0  0  0  0
 31 32  1  0  0  0  0
 32 33  1  0  0  0  0
 32 41  1  0  0  0  0
 33 34  1  0  0  0  0
 33 35  1  0  0  0  0
 35 36  1  0  0  0  0
 35 37  1  0  0  0  0
 37 38  1  0  0  0  0
 37 39  1  0  0  0  0
 39 40  1  0  0  0  0
 39 41  1  0  0  0  0
 41 42  1  6  0  0  0
 41 43  1  0  0  0  0
 42 43  1  0  0  0  0
 43 44  1  0  0  0  0
 43 57  1  0  0  0  0
 44 45  1  0  0  0  0
 44 49  1  0  0  0  0
 44 53  1  0  0  0  0
 44 75  1  0  0  0  0
 45 46  1  0  0  0  0
 45 47  1  0  0  0  0
 45 48  1  0  0  0  0
 49 50  1  0  0  0  0
 49 51  1  0  0  0  0
 49 52  1  0  0  0  0
 53 54  1  0  0  0  0
 53 55  1  0  0  0  0
 53 56  1  0  0  0  0
 57 58  1  0  0  0  0
 57 62  1  0  0  0  0
 57 66  1  0  0  0  0
 57 76  1  0  0  0  0
 58 59  1  0  0  0  0
 58 60  1  0  0  0  0
 58 61  1  0  0  0  0
 62 63  1  0  0  0  0
 62 64  1  0  0  0  0
 62 65  1  0  0  0  0
 66 67  1  0  0  0  0
 66 68  1  0  0  0  0
 66 69  1  0  0  0  0
 70 71  1  0  0  0  0
 70 72  1  0  0  0  0
 72 73  1  0  0  0  0
M  END
$$$$
