
     RDKit          3D

 32 35  0  0  0  0  0  0  0  0999 V2000
   -2.8212    2.4019   -0.3498 C   0  0  0  0  0  0  0  0  0  0  0  0
   -3.8162    1.7147   -1.0378 C   0  0  0  0  0  0  0  0  0  0  0  0
   -3.5767    0.4166   -1.4794 C   0  0  0  0  0  0  0  0  0  0  0  0
   -2.3479   -0.1931   -1.2077 C   0  0  0  0  0  0  0  0  0  0  0  0
   -1.3555    0.4516   -0.4549 C   0  0  0  0  0  0  0  0  0  0  0  0
   -1.5987    1.7794   -0.0727 C   0  0  0  0  0  0  0  0  0  0  0  0
   -0.0809   -0.2645   -0.1546 C   0  0  0  0  0  0  0  0  0  0  0  0
    0.1598   -1.4197   -0.8228 C   0  0  0  0  0  0  0  0  0  0  0  0
   -0.8790   -2.0686   -1.6745 C   0  0  0  0  0  0  0  0  0  0  0  0
   -0.6735   -3.1274   -2.2606 O   0  0  0  0  0  0  0  0  0  0  0  0
   -2.0894   -1.4488   -1.7561 N   0  0  0  0  0  0  0  0  0  0  0  0
    1.4865   -2.1380   -0.7683 C   0  0  0  0  0  0  0  0  0  0  0  0
    2.6360   -1.1553   -0.5365 C   0  0  0  0  0  0  0  0  0  0  0  0
    2.3115   -0.2660    0.6331 C   0  0  0  0  0  0  0  0  0  0  0  0
    3.3215    0.1369    1.5182 C   0  0  0  0  0  0  0  0  0  0  0  0
    3.0034    0.8895    2.6450 C   0  0  0  0  0  0  0  0  0  0  0  0
    1.6778    1.2269    2.8986 C   0  0  0  0  0  0  0  0  0  0  0  0
    0.6723    0.8429    2.0060 C   0  0  0  0  0  0  0  0  0  0  0  0
    0.9743    0.1353    0.8333 C   0  0  0  0  0  0  0  0  0  0  0  0
   -2.9888    3.4289   -0.0339 H   0  0  0  0  0  0  0  0  0  0  0  0
   -4.7651    2.1990   -1.2535 H   0  0  0  0  0  0  0  0  0  0  0  0
   -4.3412   -0.1004   -2.0522 H   0  0  0  0  0  0  0  0  0  0  0  0
   -0.8349    2.3684    0.4271 H   0  0  0  0  0  0  0  0  0  0  0  0
   -2.7772   -1.9074   -2.3373 H   0  0  0  0  0  0  0  0  0  0  0  0
    1.4513   -2.8872    0.0329 H   0  0  0  0  0  0  0  0  0  0  0  0
    1.6910   -2.6714   -1.7037 H   0  0  0  0  0  0  0  0  0  0  0  0
    3.5574   -1.7204   -0.3538 H   0  0  0  0  0  0  0  0  0  0  0  0
    2.7984   -0.5306   -1.4237 H   0  0  0  0  0  0  0  0  0  0  0  0
    4.3547   -0.1543    1.3445 H   0  0  0  0  0  0  0  0  0  0  0  0
    3.7849    1.1904    3.3377 H   0  0  0  0  0  0  0  0  0  0  0  0
    1.4212    1.7833    3.7965 H   0  0  0  0  0  0  0  0  0  0  0  0
   -0.3555    1.0875    2.2608 H   0  0  0  0  0  0  0  0  0  0  0  0
  1  2  2  0
  2  3  1  0
  3  4  2  0
  4  5  1  0
  5  6  2  0
  5  7  1  0
  7  8  2  0
  8  9  1  0
  9 10  2  0
  9 11  1  0
  8 12  1  0
 12 13  1  0
 13 14  1  0
 14 15  2  0
 15 16  1  0
 16 17  2  0
 17 18  1  0
 18 19  2  0
  6  1  1  0
 19  7  1  0
 11  4  1  0
 19 14  1  0
  1 20  1  0
  2 21  1  0
  3 22  1  0
  6 23  1  0
 11 24  1  0
 12 25  1  0
 12 26  1  0
 13 27  1  0
 13 28  1  0
 15 29  1  0
 16 30  1  0
 17 31  1  0
 18 32  1  0
M  END
