
 OpenBabel09252518583D

 87103  0  0  1  0  0  0  0  0999 V2000
    0.9472   -0.0799   -0.0288 H   0  0  0  0  0  0  0  0  0  0  0  0
    2.0172   -0.0799   -0.0288 C   0  0  0  0  0  3  0  0  0  0  0  0
    2.5294   -1.4628   -0.4380 C   0  0  0  0  0  3  0  0  0  0  0  0
    2.1403   -2.2002    0.2326 H   0  0  0  0  0  0  0  0  0  0  0  0
    2.0992   -1.7549   -1.7692 C   0  0  0  0  0  3  0  0  0  0  0  0
    2.4395   -2.7367   -2.0246 H   0  0  0  0  0  0  0  0  0  0  0  0
    2.5866   -0.8409   -2.7532 C   0  0  0  0  0  3  0  0  0  0  0  0
    4.4165   -0.8452   -2.7367 P   0  3  0  0  0  0  0  0  0  0  0  0
    5.0261   -2.5291   -3.1132 C   0  0  0  0  0  3  0  0  0  0  0  0
    3.9434   -2.8195   -2.0713 C   0  0  0  0  0  3  0  0  0  0  0  0
    3.9133   -2.0236   -1.3567 H   0  0  0  0  0  0  0  0  0  0  0  0
    2.6745   -2.9253   -2.7204 C   0  0  0  0  0  3  0  0  0  0  0  0
    1.9280   -3.0964   -1.9731 H   0  0  0  0  0  0  0  0  0  0  0  0
    2.5974   -3.9798   -3.6814 C   0  0  0  0  0  3  0  0  0  0  0  0
    2.8030   -4.9144   -3.2028 H   0  0  0  0  0  0  0  0  0  0  0  0
    3.6257   -3.7364   -4.7885 C   0  0  0  0  0  3  0  0  0  0  0  0
    3.5987   -4.5466   -5.4868 H   0  0  0  0  0  0  0  0  0  0  0  0
    5.0221   -3.6428   -4.1655 C   0  0  0  0  0  3  0  0  0  0  0  0
    5.2714   -4.5746   -3.7024 H   0  0  0  0  0  0  0  0  0  0  0  0
    5.2794    0.7734   -4.4792 Ru  0  0  0  0  0  0  0  0  0  0  0  0
    5.1967   -0.7119   -5.4383 H   0  0  0  0  0  0  0  0  0  0  0  0
    5.8751   -1.0737   -9.0438 Ru  0  0  0  0  0  0  0  0  0  0  0  0
    5.5773   -0.1502   -6.7615 Cl  0  0  0  0  0  2  0  0  0  0  0  0
    6.9071    0.8705  -10.2186 C   0  0  2  0  0  0  0  0  0  0  0  0
    7.0695    2.3217  -10.6404 C   0  0  0  0  0  0  0  0  0  0  0  0
    8.0775    2.4904  -10.9572 H   0  0  0  0  0  0  0  0  0  0  0  0
    6.4012    2.5353  -11.4483 H   0  0  0  0  0  0  0  0  0  0  0  0
    6.8440    2.9611   -9.8126 H   0  0  0  0  0  0  0  0  0  0  0  0
    6.8944    0.0633   -8.9167 C   0  0  2  0  0  0  0  0  0  0  0  0
    8.2762   -0.5173   -8.6638 C   0  0  0  0  0  0  0  0  0  0  0  0
    8.5483   -1.1576   -9.4767 H   0  0  0  0  0  0  0  0  0  0  0  0
    8.9877    0.2778   -8.5824 H   0  0  0  0  0  0  0  0  0  0  0  0
    8.2653   -1.0806   -7.7542 H   0  0  0  0  0  0  0  0  0  0  0  0
    7.6005   -2.5632  -10.0484 C   0  0  2  0  0  0  0  0  0  0  0  0
    8.6410   -1.4680   -9.8800 C   0  0  0  0  0  0  0  0  0  0  0  0
    8.6600   -0.8562  -10.7577 H   0  0  0  0  0  0  0  0  0  0  0  0
    8.3913   -0.8662   -9.0312 H   0  0  0  0  0  0  0  0  0  0  0  0
    9.6040   -1.9105   -9.7327 H   0  0  0  0  0  0  0  0  0  0  0  0
    6.2325   -1.9346  -10.2577 C   0  0  2  0  0  0  0  0  0  0  0  0
    5.1923   -3.0301  -10.4260 C   0  0  0  0  0  0  0  0  0  0  0  0
    4.2292   -2.5879  -10.5731 H   0  0  0  0  0  0  0  0  0  0  0  0
    5.4421   -3.6317  -11.2749 H   0  0  0  0  0  0  0  0  0  0  0  0
    5.1735   -3.6419   -9.5483 H   0  0  0  0  0  0  0  0  0  0  0  0
    6.2577   -1.1173  -11.4298 C   0  0  2  0  0  0  0  0  0  0  0  0
    5.8599   -1.2618  -12.8897 C   0  0  0  0  0  0  0  0  0  0  0  0
    6.4134   -2.0634  -13.3325 H   0  0  0  0  0  0  0  0  0  0  0  0
    4.8129   -1.4726  -12.9549 H   0  0  0  0  0  0  0  0  0  0  0  0
    6.0735   -0.3512  -13.4094 H   0  0  0  0  0  0  0  0  0  0  0  0
    7.2243   -0.0660  -11.3869 C   0  0  1  0  0  0  0  0  0  0  0  0
    8.1994    0.2754  -12.5018 C   0  0  0  0  0  0  0  0  0  0  0  0
    8.8236   -0.5705  -12.7011 H   0  0  0  0  0  0  0  0  0  0  0  0
    7.6544    0.5326  -13.3859 H   0  0  0  0  0  0  0  0  0  0  0  0
    8.8065    1.1043  -12.2033 H   0  0  0  0  0  0  0  0  0  0  0  0
    5.0539    2.2039   -6.5109 C   0  0  2  0  0  0  0  0  0  0  0  0
    4.3470    3.0897   -7.5239 C   0  0  0  0  0  0  0  0  0  0  0  0
    5.0687    3.6889   -8.0388 H   0  0  0  0  0  0  0  0  0  0  0  0
    3.8234    2.4780   -8.2286 H   0  0  0  0  0  0  0  0  0  0  0  0
    3.6514    3.7257   -7.0175 H   0  0  0  0  0  0  0  0  0  0  0  0
    5.3436    2.2105   -5.0067 C   0  0  2  0  0  0  0  0  0  0  0  0
    6.7292    2.7834   -4.7573 C   0  0  0  0  0  0  0  0  0  0  0  0
    7.4592    2.1818   -5.2574 H   0  0  0  0  0  0  0  0  0  0  0  0
    6.7742    3.7844   -5.1326 H   0  0  0  0  0  0  0  0  0  0  0  0
    6.9297    2.7872   -3.7062 H   0  0  0  0  0  0  0  0  0  0  0  0
    7.6842    0.4221   -5.0255 C   0  0  2  0  0  0  0  0  0  0  0  0
    7.7842    1.8620   -5.5019 C   0  0  0  0  0  0  0  0  0  0  0  0
    7.5552    1.9089   -6.5461 H   0  0  0  0  0  0  0  0  0  0  0  0
    7.0899    2.4670   -4.9570 H   0  0  0  0  0  0  0  0  0  0  0  0
    8.7777    2.2238   -5.3380 H   0  0  0  0  0  0  0  0  0  0  0  0
    6.2728   -0.0918   -5.2584 C   0  0  2  0  0  0  0  0  0  0  0  0
    6.1732   -1.5318   -4.7818 C   0  0  0  0  0  0  0  0  0  0  0  0
    5.1797   -1.8937   -4.9455 H   0  0  0  0  0  0  0  0  0  0  0  0
    6.8675   -2.1366   -5.3268 H   0  0  0  0  0  0  0  0  0  0  0  0
    6.4024   -1.5786   -3.7377 H   0  0  0  0  0  0  0  0  0  0  0  0
    5.9667   -0.0292   -6.6530 C   0  0  2  0  0  0  0  0  0  0  0  0
    5.9727   -0.9879   -7.8325 C   0  0  0  0  0  0  0  0  0  0  0  0
    6.9626   -1.3667   -7.9792 H   0  0  0  0  0  0  0  0  0  0  0  0
    5.3054   -1.8006   -7.6349 H   0  0  0  0  0  0  0  0  0  0  0  0
    5.6543   -0.4711   -8.7137 H   0  0  0  0  0  0  0  0  0  0  0  0
    6.0560    1.2830   -7.2111 C   0  0  2  0  0  0  0  0  0  0  0  0
    6.7678    1.6390   -8.5061 C   0  0  0  0  0  0  0  0  0  0  0  0
    7.8024    1.3774   -8.4280 H   0  0  0  0  0  0  0  0  0  0  0  0
    6.3238    1.1001   -9.3169 H   0  0  0  0  0  0  0  0  0  0  0  0
    6.6782    2.6901   -8.6850 H   0  0  0  0  0  0  0  0  0  0  0  0
    2.0767    0.5672   -2.4377 C   0  0  0  0  0  3  0  0  0  0  0  0
    2.4750    1.2601   -3.1492 H   0  0  0  0  0  0  0  0  0  0  0  0
    2.5300    0.9618   -1.0287 C   0  0  0  0  0  3  0  0  0  0  0  0
    3.5988    0.9976   -0.9927 H   0  0  0  0  0  0  0  0  0  0  0  0
  1  2  1  0  0  0  0
  2  3  1  0  0  0  0
  2 86  1  0  0  0  0
  3  4  1  0  0  0  0
  3  5  1  0  0  0  0
  5  6  1  0  0  0  0
  5  7  1  0  0  0  0
  7  8  1  0  0  0  0
  7 84  1  0  0  0  0
  8  9  1  0  0  0  0
  8 20  1  0  0  0  0
  8 22  1  0  0  0  0
  9 10  1  0  0  0  0
  9 18  1  0  0  0  0
 10 11  1  0  0  0  0
 10 12  1  0  0  0  0
 12 13  1  0  0  0  0
 12 14  1  0  0  0  0
 14 15  1  0  0  0  0
 14 16  1  0  0  0  0
 16 17  1  0  0  0  0
 16 18  1  0  0  0  0
 18 19  1  0  0  0  0
 20 21  1  0  0  0  0
 20 22  1  0  0  0  0
 20 23  1  0  0  0  0
 20 54  1  0  0  0  0
 20 59  1  0  0  0  0
 20 64  1  0  0  0  0
 20 69  1  0  0  0  0
 20 74  1  0  0  0  0
 20 79  1  0  0  0  0
 21 22  1  0  0  0  0
 22 23  1  0  0  0  0
 22 24  1  0  0  0  0
 22 29  1  0  0  0  0
 22 34  1  0  0  0  0
 22 39  1  0  0  0  0
 22 44  1  0  0  0  0
 22 49  1  0  0  0  0
 24 25  1  1  0  0  0
 24 29  1  0  0  0  0
 24 49  1  0  0  0  0
 25 26  1  0  0  0  0
 25 27  1  0  0  0  0
 25 28  1  0  0  0  0
 29 30  1  6  0  0  0
 29 34  1  0  0  0  0
 30 31  1  0  0  0  0
 30 32  1  0  0  0  0
 30 33  1  0  0  0  0
 34 35  1  6  0  0  0
 34 39  1  0  0  0  0
 35 36  1  0  0  0  0
 35 37  1  0  0  0  0
 35 38  1  0  0  0  0
 39 40  1  1  0  0  0
 39 44  1  0  0  0  0
 40 41  1  0  0  0  0
 40 42  1  0  0  0  0
 40 43  1  0  0  0  0
 44 45  1  1  0  0  0
 44 49  1  0  0  0  0
 45 46  1  0  0  0  0
 45 47  1  0  0  0  0
 45 48  1  0  0  0  0
 49 50  1  1  0  0  0
 50 51  1  0  0  0  0
 50 52  1  0  0  0  0
 50 53  1  0  0  0  0
 54 55  1  1  0  0  0
 54 59  1  0  0  0  0
 54 79  1  0  0  0  0
 55 56  1  0  0  0  0
 55 57  1  0  0  0  0
 55 58  1  0  0  0  0
 59 60  1  6  0  0  0
 59 64  1  0  0  0  0
 60 61  1  0  0  0  0
 60 62  1  0  0  0  0
 60 63  1  0  0  0  0
 64 65  1  6  0  0  0
 64 69  1  0  0  0  0
 65 66  1  0  0  0  0
 65 67  1  0  0  0  0
 65 68  1  0  0  0  0
 69 70  1  6  0  0  0
 69 74  1  0  0  0  0
 70 71  1  0  0  0  0
 70 72  1  0  0  0  0
 70 73  1  0  0  0  0
 74 75  1  1  0  0  0
 74 79  1  0  0  0  0
 75 76  1  0  0  0  0
 75 77  1  0  0  0  0
 75 78  1  0  0  0  0
 79 80  1  6  0  0  0
 80 81  1  0  0  0  0
 80 82  1  0  0  0  0
 80 83  1  0  0  0  0
 84 85  1  0  0  0  0
 84 86  1  0  0  0  0
 86 87  1  0  0  0  0
M  CHG  1   8   1
M  END
$$$$
