
 OpenBabel09252515513D

 23 24  0  0  1  0  0  0  0  0999 V2000
   10.0238   -1.1542   -7.7036 H   0  0  0  0  0  0  0  0  0  0  0  0
    9.4274   -0.5530   -7.0269 C   0  0  0  0  0  3  0  0  0  0  0  0
    9.9477   -0.2229   -5.7097 C   0  0  0  0  0  3  0  0  0  0  0  0
   10.9370   -0.5719   -5.4341 H   0  0  0  0  0  0  0  0  0  0  0  0
    9.0402    0.2279   -4.6594 C   0  0  0  0  0  3  0  0  0  0  0  0
    9.4075    0.2344   -3.6373 H   0  0  0  0  0  0  0  0  0  0  0  0
    7.5813    0.2565   -4.8981 C   0  0  0  0  0  3  0  0  0  0  0  0
    6.5603   -0.3569   -3.5857 S   0  0  0  0  0  0  0  0  0  0  0  0
    6.3813   -1.7854   -3.7995 O   0  0  0  0  0  0  0  0  0  0  0  0
    7.1522    0.0883   -2.3312 O   0  0  0  0  0  0  0  0  0  0  0  0
    4.9422    0.4142   -3.6760 C   0  0  2  0  0  0  0  0  0  0  0  0
    4.2484   -0.0394   -2.9586 H   0  0  0  0  0  0  0  0  0  0  0  0
    4.4124    0.3480   -5.0493 N   0  0  0  0  0  0  0  0  0  0  0  0
    3.8106   -0.3538   -5.4618 H   0  0  0  0  0  0  0  0  0  0  0  0
    3.9989    1.6444   -5.0275 C   0  0  0  0  0  0  0  0  0  0  0  0
    3.2072    2.2199   -5.7297 O   0  0  0  0  0  0  0  0  0  0  0  0
    4.8575    1.9395   -3.7808 C   0  0  0  0  0  0  0  0  0  0  0  0
    4.3121    2.4227   -2.9663 H   0  0  0  0  0  0  0  0  0  0  0  0
    5.7800    2.4827   -3.9956 H   0  0  0  0  0  0  0  0  0  0  0  0
    7.1362    0.1909   -6.2973 C   0  0  0  0  0  3  0  0  0  0  0  0
    6.2856    0.7731   -6.6278 H   0  0  0  0  0  0  0  0  0  0  0  0
    8.0275   -0.3180   -7.3291 C   0  0  0  0  0  3  0  0  0  0  0  0
    7.6355   -0.5566   -8.3105 H   0  0  0  0  0  0  0  0  0  0  0  0
  1  2  1  0  0  0  0
  2  3  1  0  0  0  0
  2 22  1  0  0  0  0
  3  4  1  0  0  0  0
  3  5  1  0  0  0  0
  5  6  1  0  0  0  0
  5  7  1  0  0  0  0
  7  8  1  0  0  0  0
  7 20  1  0  0  0  0
  8  9  2  0  0  0  0
  8 10  2  0  0  0  0
 11 13  1  0  0  0  0
 11 17  1  0  0  0  0
 11 12  1  1  0  0  0
 11  8  1  0  0  0  0
 13 14  1  0  0  0  0
 13 15  1  0  0  0  0
 15 16  2  0  0  0  0
 15 17  1  0  0  0  0
 17 18  1  0  0  0  0
 17 19  1  0  0  0  0
 20 21  1  0  0  0  0
 20 22  1  0  0  0  0
 22 23  1  0  0  0  0
M  END
$$$$
