
 OpenBabel09252519023D

 45 50  0  0  1  0  0  0  0  0999 V2000
    0.9116    0.0252   -0.0394 H   0  0  0  0  0  0  0  0  0  0  0  0
    1.9816    0.0252   -0.0394 C   0  0  0  0  0  0  0  0  0  0  0  0
    2.3383   -0.9781   -0.1444 H   0  0  0  0  0  0  0  0  0  0  0  0
    2.3383    0.6179   -0.8558 H   0  0  0  0  0  0  0  0  0  0  0  0
    2.6049    0.7430    1.5709 Si  0  0  0  0  0  0  0  0  0  0  0  0
    1.9816    2.4965    1.7545 C   0  0  0  0  0  0  0  0  0  0  0  0
    1.1995    2.8328    2.8156 C   0  0  0  0  0  0  0  0  0  0  0  0
    0.0932    3.3085    4.3164 Cr  0  0  0  0  0  0  0  0  0  0  0  0
   -1.5824    2.3401    3.3799 C   0  0  0  0  0  0  0  0  0  0  0  0
   -2.5317    1.7914    2.8494 O   0  0  0  0  0  0  0  0  0  0  0  0
    0.1368    1.9983    2.6123 C   0  0  0  0  0  0  0  0  0  0  0  0
    0.1615    1.2560    1.6469 O   0  0  0  0  0  0  0  0  0  0  0  0
   -1.6244    5.8691    3.9199 C   0  0  2  0  0  0  0  0  0  0  0  0
   -2.3776    6.5390    4.2789 H   0  0  0  0  0  0  0  0  0  0  0  0
   -1.9905    5.3082    2.5633 C   0  0  1  0  0  0  0  0  0  0  0  0
   -2.5800    5.9065    1.9004 H   0  0  0  0  0  0  0  0  0  0  0  0
   -1.5457    3.8720    2.3817 C   0  0  1  0  0  0  0  0  0  0  0  0
   -2.2966    3.5282    1.7014 H   0  0  0  0  0  0  0  0  0  0  0  0
   -0.1091    3.6520    2.8326 C   0  0  1  0  0  0  0  0  0  0  0  0
    0.1597    3.2287    1.8874 H   0  0  0  0  0  0  0  0  0  0  0  0
    0.5722    4.6434    3.7608 C   0  0  1  0  0  0  0  0  0  0  0  0
    1.5079    5.1624    3.7538 H   0  0  0  0  0  0  0  0  0  0  0  0
   -0.1288    5.9289    4.1473 C   0  0  2  0  0  0  0  0  0  0  0  0
    0.1114    6.9549    4.3333 H   0  0  0  0  0  0  0  0  0  0  0  0
    2.4334    3.7877    0.4795 Si  0  0  0  0  0  0  0  0  0  0  0  0
    4.2929    3.9739    0.4127 C   0  0  0  0  0  0  0  0  0  0  0  0
    4.7357    3.0375    0.1444 H   0  0  0  0  0  0  0  0  0  0  0  0
    4.5514    4.7127   -0.3168 H   0  0  0  0  0  0  0  0  0  0  0  0
    4.6555    4.2781    1.3723 H   0  0  0  0  0  0  0  0  0  0  0  0
    1.7995    3.2561   -1.1976 C   0  0  0  0  0  0  0  0  0  0  0  0
    0.7355    3.1496   -1.1594 H   0  0  0  0  0  0  0  0  0  0  0  0
    2.0580    3.9950   -1.9271 H   0  0  0  0  0  0  0  0  0  0  0  0
    2.2424    2.3198   -1.4659 H   0  0  0  0  0  0  0  0  0  0  0  0
    1.6594    5.4242    0.9483 C   0  0  0  0  0  0  0  0  0  0  0  0
    0.5954    5.3176    0.9865 H   0  0  0  0  0  0  0  0  0  0  0  0
    2.0221    5.7283    1.9080 H   0  0  0  0  0  0  0  0  0  0  0  0
    1.9179    6.1630    0.2188 H   0  0  0  0  0  0  0  0  0  0  0  0
    1.9816   -0.2927    2.9977 C   0  0  0  0  0  0  0  0  0  0  0  0
    2.3383   -1.2960    2.8927 H   0  0  0  0  0  0  0  0  0  0  0  0
    2.3383    0.1180    3.9191 H   0  0  0  0  0  0  0  0  0  0  0  0
    0.9116   -0.2927    2.9977 H   0  0  0  0  0  0  0  0  0  0  0  0
    4.4749    0.7430    1.5709 C   0  0  0  0  0  0  0  0  0  0  0  0
    4.8316   -0.2603    1.4659 H   0  0  0  0  0  0  0  0  0  0  0  0
    4.8316    1.3356    0.7545 H   0  0  0  0  0  0  0  0  0  0  0  0
    4.8316    1.1537    2.4923 H   0  0  0  0  0  0  0  0  0  0  0  0
  1  2  1  0  0  0  0
  2  3  1  0  0  0  0
  2  4  1  0  0  0  0
  2  5  1  0  0  0  0
  5  6  1  0  0  0  0
  5 38  1  0  0  0  0
  5 42  1  0  0  0  0
  6  7  2  0  0  0  0
  6 25  1  0  0  0  0
  7  8  2  0  0  0  0
  8  9  1  0  0  0  0
  8 11  1  0  0  0  0
  8 13  1  0  0  0  0
  8 15  1  0  0  0  0
  8 17  1  0  0  0  0
  8 19  1  0  0  0  0
  8 21  1  0  0  0  0
  8 23  1  0  0  0  0
  9 10  3  0  0  0  0
 11 12  3  0  0  0  0
 13 14  1  1  0  0  0
 13 15  1  0  0  0  0
 13 23  1  0  0  0  0
 15 16  1  1  0  0  0
 15 17  1  0  0  0  0
 17 18  1  6  0  0  0
 17 19  1  0  0  0  0
 19 20  1  6  0  0  0
 19 21  1  0  0  0  0
 21 22  1  6  0  0  0
 21 23  1  0  0  0  0
 23 24  1  1  0  0  0
 25 26  1  0  0  0  0
 25 30  1  0  0  0  0
 25 34  1  0  0  0  0
 26 27  1  0  0  0  0
 26 28  1  0  0  0  0
 26 29  1  0  0  0  0
 30 31  1  0  0  0  0
 30 32  1  0  0  0  0
 30 33  1  0  0  0  0
 34 35  1  0  0  0  0
 34 36  1  0  0  0  0
 34 37  1  0  0  0  0
 38 39  1  0  0  0  0
 38 40  1  0  0  0  0
 38 41  1  0  0  0  0
 42 43  1  0  0  0  0
 42 44  1  0  0  0  0
 42 45  1  0  0  0  0
M  END
$$$$
