
 OpenBabel09252515543D

 26 26  0  0  0  0  0  0  0  0999 V2000
    3.2329    0.0736    0.8143 H   0  0  0  0  0  0  0  0  0  0  0  0
    2.9655   -0.2242   -0.1938 C   0  0  0  0  0  3  0  0  0  0  0  0
    2.2730   -1.4924   -0.3986 C   0  0  0  0  0  3  0  0  0  0  0  0
    2.0918   -2.1371    0.4543 H   0  0  0  0  0  0  0  0  0  0  0  0
    2.0100   -1.9676   -1.7602 C   0  0  0  0  0  3  0  0  0  0  0  0
    1.7236   -3.3813   -1.9996 N   0  0  0  0  0  0  0  0  0  0  0  0
    1.7000   -4.1355   -1.0176 O   0  0  0  0  0  0  0  0  0  0  0  0
    1.5323   -3.7383   -3.1698 O   0  0  0  0  0  0  0  0  0  0  0  0
    2.2530   -1.0686   -2.8917 C   0  0  0  0  0  3  0  0  0  0  0  0
    2.0719   -1.4002   -3.9083 H   0  0  0  0  0  0  0  0  0  0  0  0
    2.9677    0.1850   -2.6788 C   0  0  0  0  0  3  0  0  0  0  0  0
    3.3080    0.7544   -3.5384 H   0  0  0  0  0  0  0  0  0  0  0  0
    3.5037    0.5104   -1.3487 C   0  0  0  0  0  3  0  0  0  0  0  0
    4.8001    1.2389   -1.2603 C   0  0  0  0  0  0  0  0  0  0  0  0
    5.5418    1.3991   -2.2193 O   0  0  0  0  0  0  0  0  0  0  0  0
    5.0581    1.5985    0.0194 O   0  0  0  0  0  0  0  0  0  0  0  0
    6.4227    1.9486    0.3189 C   0  0  0  0  0  0  0  0  0  0  0  0
    7.0883    1.1860   -0.1045 H   0  0  0  0  0  0  0  0  0  0  0  0
    6.7903    3.3289   -0.2127 C   0  0  0  0  0  0  0  0  0  0  0  0
    6.0886    4.0886    0.1445 H   0  0  0  0  0  0  0  0  0  0  0  0
    7.8027    3.6078    0.0961 H   0  0  0  0  0  0  0  0  0  0  0  0
    6.7579    3.3592   -1.3055 H   0  0  0  0  0  0  0  0  0  0  0  0
    6.5540    1.9133    1.8379 C   0  0  0  0  0  0  0  0  0  0  0  0
    5.9110    2.6687    2.3030 H   0  0  0  0  0  0  0  0  0  0  0  0
    6.2303    0.9431    2.2295 H   0  0  0  0  0  0  0  0  0  0  0  0
    7.5862    2.0911    2.1524 H   0  0  0  0  0  0  0  0  0  0  0  0
  1  2  1  0  0  0  0
  2  3  1  0  0  0  0
  2 13  1  0  0  0  0
  3  4  1  0  0  0  0
  3  5  1  0  0  0  0
  5  6  1  0  0  0  0
  5  9  1  0  0  0  0
  6  7  2  0  0  0  0
  6  8  2  0  0  0  0
  9 10  1  0  0  0  0
  9 11  1  0  0  0  0
 11 12  1  0  0  0  0
 11 13  1  0  0  0  0
 13 14  1  0  0  0  0
 14 15  2  0  0  0  0
 14 16  1  0  0  0  0
 16 17  1  0  0  0  0
 17 18  1  0  0  0  0
 17 19  1  0  0  0  0
 17 23  1  0  0  0  0
 19 20  1  0  0  0  0
 19 21  1  0  0  0  0
 19 22  1  0  0  0  0
 23 24  1  0  0  0  0
 23 25  1  0  0  0  0
 23 26  1  0  0  0  0
M  END
$$$$
