
     RDKit          3D

 26 26  0  0  0  0  0  0  0  0999 V2000
    1.1397    0.7623    0.3728 C   0  0  0  0  0  0  0  0  0  0  0  0
    2.4758    1.0942    0.6256 C   0  0  0  0  0  0  0  0  0  0  0  0
    3.4974    0.2416    0.1853 C   0  0  0  0  0  0  0  0  0  0  0  0
    4.9002    0.5882    0.4496 N   0  0  0  0  0  4  0  0  0  0  0  0
    5.7727   -0.1922    0.0437 O   0  0  0  0  0  1  0  0  0  0  0  0
    5.1271    1.6406    1.0630 O   0  0  0  0  0  0  0  0  0  0  0  0
    3.1907   -0.9382   -0.5048 C   0  0  0  0  0  0  0  0  0  0  0  0
    1.8529   -1.2627   -0.7535 C   0  0  0  0  0  0  0  0  0  0  0  0
    0.8204   -0.4172   -0.3177 C   0  0  0  0  0  0  0  0  0  0  0  0
   -0.5841   -0.8163   -0.6119 C   0  0  0  0  0  0  0  0  0  0  0  0
   -0.8786   -1.8378   -1.2108 O   0  0  0  0  0  0  0  0  0  0  0  0
   -1.4509    0.1039   -0.1234 O   0  0  0  0  0  0  0  0  0  0  0  0
   -2.8493   -0.1653   -0.3391 C   0  0  0  0  0  0  0  0  0  0  0  0
   -3.3652   -1.0911    0.7566 C   0  0  0  0  0  0  0  0  0  0  0  0
   -3.5748    1.1741   -0.2998 C   0  0  0  0  0  0  0  0  0  0  0  0
    0.3577    1.4343    0.7210 H   0  0  0  0  0  0  0  0  0  0  0  0
    2.6997    2.0142    1.1630 H   0  0  0  0  0  0  0  0  0  0  0  0
    3.9722   -1.6111   -0.8535 H   0  0  0  0  0  0  0  0  0  0  0  0
    1.6176   -2.1813   -1.2905 H   0  0  0  0  0  0  0  0  0  0  0  0
   -3.0056   -0.6163   -1.3267 H   0  0  0  0  0  0  0  0  0  0  0  0
   -2.8473   -2.0552    0.7289 H   0  0  0  0  0  0  0  0  0  0  0  0
   -4.4386   -1.2743    0.6475 H   0  0  0  0  0  0  0  0  0  0  0  0
   -3.1801   -0.6645    1.7487 H   0  0  0  0  0  0  0  0  0  0  0  0
   -4.6504    1.0493   -0.4570 H   0  0  0  0  0  0  0  0  0  0  0  0
   -3.4154    1.6804    0.6588 H   0  0  0  0  0  0  0  0  0  0  0  0
   -3.1838    1.8411   -1.0758 H   0  0  0  0  0  0  0  0  0  0  0  0
  1  2  2  0
  2  3  1  0
  3  4  1  0
  4  5  1  0
  4  6  2  0
  3  7  2  0
  7  8  1  0
  8  9  2  0
  9 10  1  0
 10 11  2  0
 10 12  1  0
 12 13  1  0
 13 14  1  0
 13 15  1  0
  9  1  1  0
  1 16  1  0
  2 17  1  0
  7 18  1  0
  8 19  1  0
 13 20  1  0
 14 21  1  0
 14 22  1  0
 14 23  1  0
 15 24  1  0
 15 25  1  0
 15 26  1  0
M  CHG  2   4   1   5  -1
M  END
