
  --CCDC--092525    3D                              

 73 77  0  0  0  0  0  0  0  0999 V2000
    0.2001    0.0125    0.6852 Cl     0
    1.4435    1.9850    0.1162 Ir     0
    2.3245    1.9240    2.0215 N      0
    1.8760    2.8469    2.8919 C      0
    1.9475    4.2491    2.6202 C      0
    2.8395    4.8011    1.5445 C      0
    2.3591    4.2635   -0.1104 P      0
    1.0679    5.3752   -0.7321 C      0
    0.6181    4.9430   -2.1276 C      0
   -0.1487    5.4770    0.1893 C      0
    3.7911    4.5210   -1.1913 C      0
    5.1029    4.1306   -0.5098 C      0
    3.9122    5.9962   -1.5748 C      0
    1.2628    5.1174    3.4298 C      0
    0.5766    4.6779    4.5493 C      0
    0.6151    3.3661    4.9154 C      0
    1.3079    2.4252    4.1175 C      0
    1.4845    1.0981    4.4847 C      0
    2.3032    0.2657    3.7318 C      0
    2.6687   -1.0321    4.1609 C      0
    3.5498   -1.7731    3.4339 C      0
    4.1184   -1.2582    2.2822 C      0
    3.7865   -0.0166    1.8066 C      0
    4.5019    0.4938    0.5900 C      0
    3.3078    0.6292   -0.7533 P      0
    4.0414    1.3158   -2.2649 C      0
    2.9706    1.7356   -3.2733 C      0
    5.0290    0.3691   -2.9448 C      0
    2.7408   -1.0758   -1.0137 C      0
    1.7896   -1.2035   -2.2032 C      0
    3.8909   -2.0765   -1.1512 C      0
    2.7979    0.7549    2.4962 C      0
    0.9832    1.9565   -1.4573 H      0
    0.0977    2.8057    0.5593 H      0
    2.8759    5.8965    1.5909 H      0
    3.8513    4.4298    1.7464 H      0
    1.5002    6.3845   -0.8079 H      0
    0.1747    3.9498   -2.0996 H      0
    1.4616    4.9182   -2.8143 H      0
   -0.1226    5.6337   -2.5253 H      0
   -0.7227    4.5552    0.1994 H      0
   -0.8116    6.2710   -0.1483 H      0
    0.1545    5.7060    1.2080 H      0
    3.6561    3.9389   -2.1153 H      0
    5.1061    3.0750   -0.2597 H      0
    5.2559    4.7028    0.4024 H      0
    5.9467    4.3200   -1.1700 H      0
    3.0374    6.3270   -2.1304 H      0
    4.7887    6.1602   -2.1983 H      0
    4.0069    6.6189   -0.6877 H      0
    1.2707    6.1769    3.1961 H      0
    0.0239    5.3889    5.1544 H      0
    0.1228    3.0442    5.8272 H      0
    1.0297    0.7260    5.3968 H      0
    2.2556   -1.4332    5.0805 H      0
    3.8195   -2.7694    3.7684 H      0
    4.8478   -1.8528    1.7422 H      0
    4.9427    1.4694    0.8192 H      0
    5.3111   -0.1915    0.3088 H      0
    4.6034    2.2147   -1.9898 H      0
    2.3742    0.8871   -3.5974 H      0
    3.4294    2.1788   -4.1547 H      0
    2.3006    2.4736   -2.8379 H      0
    4.5021   -0.4072   -3.4941 H      0
    5.6824   -0.1037   -2.2146 H      0
    5.6502    0.9117   -3.6544 H      0
    2.1965   -1.3773   -0.1077 H      0
    1.2939   -2.1720   -2.1940 H      0
    2.3310   -1.1163   -3.1421 H      0
    1.0241   -0.4310   -2.1735 H      0
    4.3934   -1.9982   -2.1096 H      0
    3.5163   -3.0941   -1.0623 H      0
    4.6288   -1.9229   -0.3666 H      0
  1  2  1
  2  3  1
  3  4  4
  4  5  4
  5  6  1
  6  7  1
  2  7  1
  7  8  1
  8  9  1
  8 10  1
  7 11  1
 11 12  1
 11 13  1
  5 14  4
 14 15  4
 15 16  4
 16 17  4
  4 17  4
 17 18  4
 18 19  4
 19 20  4
 20 21  4
 21 22  4
 22 23  4
 23 24  1
 24 25  1
  2 25  1
 25 26  1
 26 27  1
 26 28  1
 25 29  1
 29 30  1
 29 31  1
 23 32  4
  3 32  4
 19 32  4
  2 33  1
  2 34  1
  6 35  1
  6 36  1
  8 37  1
  9 38  1
  9 39  1
  9 40  1
 10 41  1
 10 42  1
 10 43  1
 11 44  1
 12 45  1
 12 46  1
 12 47  1
 13 48  1
 13 49  1
 13 50  1
 14 51  1
 15 52  1
 16 53  1
 18 54  1
 20 55  1
 21 56  1
 22 57  1
 24 58  1
 24 59  1
 26 60  1
 27 61  1
 27 62  1
 27 63  1
 28 64  1
 28 65  1
 28 66  1
 29 67  1
 30 68  1
 30 69  1
 30 70  1
 31 71  1
 31 72  1
 31 73  1
M  END
$$$$
