
  --CCDC--092525    3D                              

 75 79  0  0  0  0  0  0  0  0999 V2000
   -0.2369    0.4589   -0.8017 H      0
    0.4204    1.2657   -0.4947 C      0
    1.0144    2.0817   -1.4262 C      0
    0.8381    1.8730   -2.4762 H      0
    1.8570    3.1138   -1.1009 C      0
    1.9880    3.5494    0.2923 C      0
    1.4922    2.5682    1.2134 C      0
    0.7087    1.4640    0.8088 C      0
    0.3251    0.7756    1.5546 H      0
    1.7655    2.6576    2.5645 C      0
    1.4932    1.8392    3.2228 H      0
    2.3333    3.7915    3.0904 C      0
    2.6038    3.9297    4.4717 C      0
    2.4649    3.0853    5.1387 H      0
    3.0163    5.1256    4.9673 C      0
    3.2409    5.2291    6.0237 H      0
    3.1169    6.2174    4.1268 C      0
    3.3823    7.1791    4.5509 H      0
    2.8771    6.1153    2.7801 C      0
    2.5794    4.8519    2.1920 C      0
    2.5083    4.7142    0.8441 N      0
    3.1009    6.4703   -0.1816 Ir     0
    2.9888    7.8929   -0.9874 H      0
    4.6070    5.8598   -0.4035 H      0
    0.8481    7.0488    0.4952 Cl     0
    2.7201    5.3281   -2.3010 P      0
    3.6502    6.0089   -3.6974 C      0
    3.1550    5.6938   -4.6289 H      0
    5.0770    5.4587   -3.7122 C      0
    5.6280    5.8387   -4.5700 H      0
    5.0708    4.3721   -3.7677 H      0
    5.6117    5.7489   -2.8102 H      0
    3.7210    7.5373   -3.6764 C      0
    2.7377    7.9829   -3.7992 H      0
    4.3544    7.9009   -4.4828 H      0
    4.1383    7.8901   -2.7356 H      0
    0.9246    5.6063   -2.3522 C      0
    0.5006    5.3227   -1.3780 H      0
    0.1745    4.8144   -3.4271 C      0
    0.1216    3.7557   -3.1858 H      0
    0.6584    4.9228   -4.3955 H      0
   -0.8465    5.1787   -3.5200 H      0
    0.6064    7.0757   -2.6389 C      0
    0.7803    7.3036   -3.6881 H      0
    1.2288    7.7420   -2.0469 H      0
   -0.4365    7.2941   -2.4188 H      0
    2.5840    3.5494   -2.3531 C      0
    2.0825    3.1951   -3.2607 H      0
    3.5897    3.1111   -2.3551 H      0
    4.5315    7.7185    1.4229 P      0
    4.3163    9.1444    2.5414 C      0
    3.8565    8.7296    3.4499 H      0
    3.4117   10.3083    2.1086 C      0
    2.5919    9.9665    1.4809 H      0
    3.9562   11.0760    1.5703 H      0
    2.9815   10.7868    2.9859 H      0
    5.6522    9.7455    2.9804 C      0
    6.3772    8.9650    3.2016 H      0
    5.5209   10.3488    3.8762 H      0
    6.0610   10.3910    2.2078 H      0
    5.2854    8.4183   -0.0802 C      0
    5.1339    7.6709   -0.8722 H      0
    6.8020    8.5646    0.0642 C      0
    7.2495    7.6233    0.3765 H      0
    7.2496    8.8505   -0.8853 H      0
    7.0645    9.3212    0.7975 H      0
    4.7240    9.7285   -0.6332 C      0
    3.6493    9.7958   -0.4778 H      0
    5.2036   10.5819   -0.1626 H      0
    4.9169    9.7999   -1.7016 H      0
    2.8590    7.3438    1.9239 C      0
    2.4110    7.1017    0.9710 H      0
    2.2988    8.1567    2.3945 H      0
    3.5945    4.6435   -1.4485 H      0
    5.4112    6.7997    2.0077 H      0
  1  2  1
  2  3  4
  3  4  1
  3  5  4
  5  6  4
  6  7  4
  7  8  4
  2  8  4
  8  9  1
  7 10  4
 10 11  1
 10 12  4
 12 13  4
 13 14  1
 13 15  4
 15 16  1
 15 17  4
 17 18  1
 17 19  4
 19 20  4
 12 20  4
 20 21  4
  6 21  4
 21 22  1
 22 23  1
 22 24  1
 22 25  1
 22 26  1
 26 27  1
 27 28  1
 27 29  1
 29 30  1
 29 31  1
 29 32  1
 27 33  1
 33 34  1
 33 35  1
 33 36  1
 26 37  1
 37 38  1
 37 39  1
 39 40  1
 39 41  1
 39 42  1
 37 43  1
 43 44  1
 43 45  1
 43 46  1
 26 47  1
  5 47  1
 47 48  1
 47 49  1
 22 50  1
 50 51  1
 51 52  1
 51 53  1
 53 54  1
 53 55  1
 53 56  1
 51 57  1
 57 58  1
 57 59  1
 57 60  1
 50 61  1
 61 62  1
 61 63  1
 63 64  1
 63 65  1
 63 66  1
 61 67  1
 67 68  1
 67 69  1
 67 70  1
 50 71  1
 19 71  1
 71 72  1
 71 73  1
 26 74  1
 50 75  1
M  END
$$$$
