
 OpenBabel09252519573D

 32 34  0  0  0  0  0  0  0  0999 V2000
    1.0240   -0.0924   -0.0297 C   0  0  0  0  0  0  0  0  0  0  0  0
    0.5173   -1.1356    0.9529 C   0  0  0  0  0  0  0  0  0  0  0  0
    1.0240   -0.8062    2.3476 C   0  0  0  0  0  0  0  0  0  0  0  0
    0.1400   -0.5685    3.3539 C   0  0  0  0  0  0  0  0  0  0  0  0
   -1.0027   -1.1356    0.9529 C   0  0  0  0  0  0  0  0  0  0  0  0
   -1.4927   -1.4541   -0.3959 N   0  0  0  0  0  0  0  0  0  0  0  0
   -1.1856   -0.7063   -1.3766 N   0  0  0  0  0  0  0  0  0  0  0  0
   -0.4550    0.3169   -1.1911 N   0  0  0  0  0  2  0  0  0  0  0  0
   -1.5093   -2.1787    1.9355 C   0  0  0  0  0  0  0  0  0  0  0  0
   -1.2229   -3.4632    1.8042 C   0  0  0  0  0  0  0  0  0  0  0  0
   -1.7085   -4.1173    3.0470 C   0  0  0  0  0  0  0  0  0  0  0  0
   -2.2266   -3.1508    3.7861 C   0  0  0  0  0  0  0  0  0  0  0  0
   -2.8475   -3.3247    5.1626 C   0  0  0  0  0  0  0  0  0  0  0  0
   -2.1134   -1.9904    3.1199 Fe  0  0  0  0  0  0  0  0  0  0  0  0
   -0.8582   -0.3592    3.4202 C   0  0  0  0  0  0  0  0  0  0  0  0
   -0.1231    0.5960    3.5960 O   0  0  0  0  0  0  0  0  0  0  0  0
   -0.7326   -1.7773    1.5790 C   0  0  0  0  0  0  0  0  0  0  0  0
    0.0760   -1.6526    0.6766 O   0  0  0  0  0  0  0  0  0  0  0  0
   -0.7370   -0.4994    2.6629 C   0  0  0  0  0  0  0  0  0  0  0  0
    0.0691    0.3738    2.3953 O   0  0  0  0  0  0  0  0  0  0  0  0
    0.6673    0.8738    0.2604 H   0  0  0  0  0  0  0  0  0  0  0  0
    0.6673   -0.3243   -1.0115 H   0  0  0  0  0  0  0  0  0  0  0  0
    2.0940   -0.0924   -0.0297 H   0  0  0  0  0  0  0  0  0  0  0  0
    0.8740   -2.1018    0.6628 H   0  0  0  0  0  0  0  0  0  0  0  0
    2.0760   -0.7612    2.5379 H   0  0  0  0  0  0  0  0  0  0  0  0
    0.4966   -0.3366    4.3357 H   0  0  0  0  0  0  0  0  0  0  0  0
   -0.9120   -0.6135    3.1636 H   0  0  0  0  0  0  0  0  0  0  0  0
   -1.3593   -0.1694    1.2430 H   0  0  0  0  0  0  0  0  0  0  0  0
   -1.5256   -0.9274   -2.3125 H   0  0  0  0  0  0  0  0  0  0  0  0
   -2.3086   -2.7347    5.8741 H   0  0  0  0  0  0  0  0  0  0  0  0
   -3.8688   -3.0064    5.1359 H   0  0  0  0  0  0  0  0  0  0  0  0
   -2.8024   -4.3553    5.4466 H   0  0  0  0  0  0  0  0  0  0  0  0
  1  2  1  0  0  0  0
  1 21  1  0  0  0  0
  1 22  1  0  0  0  0
  1 23  1  0  0  0  0
  2  3  1  0  0  0  0
  2  5  1  0  0  0  0
  2 24  1  0  0  0  0
  3  4  2  0  0  0  0
  3 25  1  0  0  0  0
  4 26  1  0  0  0  0
  4 27  1  0  0  0  0
  5  6  1  0  0  0  0
  5  9  1  0  0  0  0
  5 28  1  0  0  0  0
  6  7  2  0  0  0  0
  7  8  2  0  0  0  0
  7 29  1  0  0  0  0
  9 10  2  0  0  0  0
  9 14  1  0  0  0  0
 10 11  1  0  0  0  0
 10 14  1  0  0  0  0
 11 12  2  0  0  0  0
 11 14  1  0  0  0  0
 12 13  1  0  0  0  0
 12 14  1  0  0  0  0
 13 30  1  0  0  0  0
 13 31  1  0  0  0  0
 13 32  1  0  0  0  0
 14 15  1  0  0  0  0
 14 17  1  0  0  0  0
 14 19  1  0  0  0  0
 15 16  3  0  0  0  0
 17 18  3  0  0  0  0
 19 20  3  0  0  0  0
M  END
$$$$
