
     RDKit          3D

  0  0  0  0  0  0  0  0  0  0999 V3000
M  V30 BEGIN CTAB
M  V30 COUNTS 43 45 0 0 0
M  V30 BEGIN ATOM
M  V30 1 C 5.404746 1.033600 -0.645605 0
M  V30 2 C 5.071160 -0.118068 -1.304071 0
M  V30 3 C 3.894251 -0.714059 -0.907393 0
M  V30 4 C 3.000141 -0.288296 0.082305 0
M  V30 5 C 1.778205 -1.051933 0.389517 0 CFG=1
M  V30 6 C 1.926060 -1.812287 1.707867 0
M  V30 7 N 0.575139 -0.205754 0.442988 0
M  V30 8 Pt -0.556943 -0.695913 -1.155903 0 CFG=1 VAL=4
M  V30 9 N -1.810057 -1.151405 -2.728149 0
M  V30 10 C -2.433810 -2.255559 -2.695130 0
M  V30 11 O -2.893277 -3.401735 -2.761917 0
M  V30 12 C -1.488691 1.295806 -1.099406 0
M  V30 13 C -1.464321 2.576945 -1.577329 0
M  V30 14 C -2.493078 3.349042 -1.131983 0
M  V30 15 C -3.469729 2.894709 -0.281321 0
M  V30 16 C -3.531207 1.617707 0.223102 0
M  V30 17 C -2.487331 0.765426 -0.202016 0
M  V30 18 C -2.558783 -0.600610 0.482284 0 CFG=1
M  V30 19 C -3.948662 -0.923532 0.939294 0
M  V30 20 N -1.881242 -1.791356 0.048507 0
M  V30 21 C 3.394740 0.892983 0.718156 0
M  V30 22 C 4.579997 1.529965 0.348083 0
M  V30 23 H 6.328217 1.506307 -0.952539 0
M  V30 24 H 5.641040 -0.582476 -2.085272 0
M  V30 25 H 3.594062 -1.639429 -1.412771 0
M  V30 26 H 1.693948 -1.833451 -0.394661 0
M  V30 27 H 0.907702 -1.799514 2.173045 0
M  V30 28 H 2.195157 -2.878477 1.542085 0
M  V30 29 H 2.608968 -1.311779 2.397472 0
M  V30 30 H 0.090309 -0.403770 1.341866 0
M  V30 31 H 0.867859 0.808496 0.345991 0
M  V30 32 H -0.568656 2.418385 -2.153494 0
M  V30 33 H -2.286874 4.300430 -1.618519 0
M  V30 34 H -4.188295 3.663059 -0.054088 0
M  V30 35 H -4.350129 1.407516 0.872931 0
M  V30 36 H -1.989103 -0.341879 1.467236 0
M  V30 37 H -4.665109 -0.499827 0.175618 0
M  V30 38 H -4.151785 -2.017093 0.907197 0
M  V30 39 H -4.202917 -0.575962 1.954902 0
M  V30 40 H -2.404120 -2.543742 -0.433159 0
M  V30 41 H -1.385205 -2.334226 0.816860 0
M  V30 42 H 2.764502 1.271708 1.484569 0
M  V30 43 H 4.893121 2.440047 0.835714 0
M  V30 END ATOM
M  V30 BEGIN BOND
M  V30 1 2 1 2
M  V30 2 1 2 3
M  V30 3 2 3 4
M  V30 4 1 4 5
M  V30 5 1 5 6
M  V30 6 1 5 7
M  V30 7 9 7 8
M  V30 8 1 8 9
M  V30 9 2 9 10
M  V30 10 2 10 11
M  V30 11 1 8 12
M  V30 12 2 12 13
M  V30 13 1 13 14
M  V30 14 2 14 15
M  V30 15 1 15 16
M  V30 16 2 16 17
M  V30 17 1 17 18
M  V30 18 1 18 19
M  V30 19 1 18 20
M  V30 20 1 4 21
M  V30 21 2 21 22
M  V30 22 1 22 1
M  V30 23 9 20 8
M  V30 24 1 17 12
M  V30 25 1 1 23
M  V30 26 1 2 24
M  V30 27 1 3 25
M  V30 28 1 5 26 CFG=3
M  V30 29 1 6 27
M  V30 30 1 6 28
M  V30 31 1 6 29
M  V30 32 1 7 30
M  V30 33 1 7 31
M  V30 34 1 13 32
M  V30 35 1 14 33
M  V30 36 1 15 34
M  V30 37 1 16 35
M  V30 38 1 18 36 CFG=1
M  V30 39 1 19 37
M  V30 40 1 19 38
M  V30 41 1 19 39
M  V30 42 1 20 40
M  V30 43 1 20 41
M  V30 44 1 21 42
M  V30 45 1 22 43
M  V30 END BOND
M  V30 END CTAB
M  END
