
  --CCDC--092525    3D                              

 24 29  0  0  0  0  0  0  0  0999 V2000
    1.6429   -1.3469    0.0399 H      0
    1.4038   -0.4165   -0.4690 C      0
    2.1447    0.3307   -0.1943 H      0
    1.4713   -0.5915   -1.5413 H      0
   -0.0098    0.0401   -0.0908 C      0
   -1.1827    0.4488   -0.9335 C      0
   -0.8736    0.4787   -2.0355 H      0
   -2.4509    0.1465   -0.1499 C      0
   -3.3151    0.0401   -0.8886 H      0
   -2.0196   -0.6006    1.1555 C      0
   -2.5159   -1.6151    1.2712 H      0
   -0.4812   -0.6589    1.1419 C      0
   -0.0545   -1.7112    1.2063 H      0
   -1.3318   -1.6967   -0.5274 Mn     0
   -1.7002   -2.1838   -2.7353 C      0
   -1.8570   -2.4292   -3.8381 O      0
   -3.1261   -3.1117   -0.7112 C      0
   -4.0196   -3.8162   -0.8027 O      0
   -0.2300   -3.1421   -1.1438 H      0
   -0.6134   -4.2824   -0.1288 Si     0
    1.0289   -4.3369    1.1242 Cl     0
    0.3640   -5.9038   -0.9566 Cl     0
   -1.5723   -4.6775    1.6581 Cl     0
   -1.7961   -5.0377   -0.6741 H      0
  1  2  1
  2  3  1
  2  4  1
  2  5  1
  5  6  4
  6  7  1
  6  8  4
  8  9  1
  8 10  4
 10 11  1
 10 12  4
  5 12  4
 12 13  1
 12 14  1
  8 14  1
 10 14  1
  6 14  1
  5 14  1
 14 15  1
 15 16  3
 14 17  1
 17 18  3
 14 19  1
 19 20  1
 14 20  1
 20 21  1
 20 22  1
 20 23  1
 20 24  1
M  END
$$$$
