
     RDKit          3D

 57 60  0  0  0  0  0  0  0  0999 V2000
    4.9758   -1.6626   -2.1733 C   0  0  0  0  0  0  0  0  0  0  0  0
    3.8719   -0.9548   -2.6451 C   0  0  0  0  0  0  0  0  0  0  0  0
    3.0729   -0.2260   -1.7595 C   0  0  0  0  0  0  0  0  0  0  0  0
    3.3604   -0.2206   -0.3879 C   0  0  0  0  0  0  0  0  0  0  0  0
    2.6173    0.5570    0.5960 N   0  0  0  0  0  0  0  0  0  0  0  0
    1.2201    0.8134    0.2625 C   0  0  0  0  0  0  0  0  0  0  0  0
    0.3019   -0.1110    0.6183 C   0  0  0  0  0  0  0  0  0  0  0  0
   -1.0974    0.1025    0.4061 C   0  0  0  0  0  0  0  0  0  0  0  0
   -2.2765    0.2680    0.2410 C   0  0  0  0  0  0  0  0  0  0  0  0
   -3.6833    0.4618    0.0444 C   0  0  0  0  0  0  0  0  0  0  0  0
   -4.2552    1.6682    0.4663 C   0  0  0  0  0  0  0  0  0  0  0  0
   -5.6193    1.8954    0.2940 C   0  0  0  0  0  0  0  0  0  0  0  0
   -6.4134    0.9182   -0.3006 C   0  0  0  0  0  0  0  0  0  0  0  0
   -5.8481   -0.2891   -0.7241 C   0  0  0  0  0  0  0  0  0  0  0  0
   -4.4798   -0.5303   -0.5551 C   0  0  0  0  0  0  0  0  0  0  0  0
   -3.8377   -1.6803   -0.9396 O   0  0  0  0  0  0  0  0  0  0  0  0
   -4.6312   -2.7223   -1.4907 C   0  0  0  0  0  0  0  0  0  0  0  0
    0.5805   -1.7646    1.5188 Si  0  0  0  0  0  4  0  0  0  0  0  0
    1.1445   -3.0815    0.3045 C   0  0  0  0  0  0  0  0  0  0  0  0
   -1.0373   -2.3818    2.3009 C   0  0  0  0  0  0  0  0  0  0  0  0
    1.8123   -1.5864    2.9263 C   0  0  0  0  0  0  0  0  0  0  0  0
    1.0142    2.1620   -0.3160 C   0  0  0  0  0  0  0  0  0  0  0  0
   -0.0106    2.6639   -1.1099 C   0  0  0  0  0  0  0  0  0  0  0  0
    0.0654    3.9809   -1.5880 C   0  0  0  0  0  0  0  0  0  0  0  0
    1.1721    4.7913   -1.2965 C   0  0  0  0  0  0  0  0  0  0  0  0
    2.2188    4.2921   -0.5275 C   0  0  0  0  0  0  0  0  0  0  0  0
    2.1003    2.9929   -0.0575 C   0  0  0  0  0  0  0  0  0  0  0  0
    3.3162    2.1415    0.8624 S   0  0  0  0  0  6  0  0  0  0  0  0
    3.1257    2.5132    2.2487 O   0  0  0  0  0  0  0  0  0  0  0  0
    4.5824    2.2951    0.1797 O   0  0  0  0  0  0  0  0  0  0  0  0
    4.4919   -0.9095    0.0687 C   0  0  0  0  0  0  0  0  0  0  0  0
    5.2901   -1.6358   -0.8169 C   0  0  0  0  0  0  0  0  0  0  0  0
    5.5992   -2.2235   -2.8651 H   0  0  0  0  0  0  0  0  0  0  0  0
    3.6368   -0.9617   -3.7065 H   0  0  0  0  0  0  0  0  0  0  0  0
    2.2319    0.3252   -2.1676 H   0  0  0  0  0  0  0  0  0  0  0  0
   -3.6393    2.4334    0.9336 H   0  0  0  0  0  0  0  0  0  0  0  0
   -6.0611    2.8319    0.6246 H   0  0  0  0  0  0  0  0  0  0  0  0
   -7.4781    1.0940   -0.4355 H   0  0  0  0  0  0  0  0  0  0  0  0
   -6.5055   -1.0199   -1.1833 H   0  0  0  0  0  0  0  0  0  0  0  0
   -5.0934   -2.4094   -2.4326 H   0  0  0  0  0  0  0  0  0  0  0  0
   -3.9693   -3.5655   -1.7098 H   0  0  0  0  0  0  0  0  0  0  0  0
   -5.3839   -3.0681   -0.7746 H   0  0  0  0  0  0  0  0  0  0  0  0
    1.1924   -4.0569    0.7978 H   0  0  0  0  0  0  0  0  0  0  0  0
    0.4443   -3.1579   -0.5329 H   0  0  0  0  0  0  0  0  0  0  0  0
    2.1352   -2.8615   -0.0976 H   0  0  0  0  0  0  0  0  0  0  0  0
   -1.7819   -2.6022    1.5305 H   0  0  0  0  0  0  0  0  0  0  0  0
   -0.8500   -3.2990    2.8672 H   0  0  0  0  0  0  0  0  0  0  0  0
   -1.4443   -1.6313    2.9846 H   0  0  0  0  0  0  0  0  0  0  0  0
    2.8280   -1.4278    2.5595 H   0  0  0  0  0  0  0  0  0  0  0  0
    1.8193   -2.4930    3.5391 H   0  0  0  0  0  0  0  0  0  0  0  0
    1.5425   -0.7440    3.5699 H   0  0  0  0  0  0  0  0  0  0  0  0
   -0.8624    2.0552   -1.3949 H   0  0  0  0  0  0  0  0  0  0  0  0
   -0.7398    4.3741   -2.2059 H   0  0  0  0  0  0  0  0  0  0  0  0
    1.2173    5.8064   -1.6848 H   0  0  0  0  0  0  0  0  0  0  0  0
    3.0966    4.8918   -0.3078 H   0  0  0  0  0  0  0  0  0  0  0  0
    4.7589   -0.8811    1.1223 H   0  0  0  0  0  0  0  0  0  0  0  0
    6.1615   -2.1704   -0.4477 H   0  0  0  0  0  0  0  0  0  0  0  0
  1  2  2  0
  2  3  1  0
  3  4  2  0
  4  5  1  0
  5  6  1  0
  6  7  2  0
  7  8  1  0
  8  9  3  0
  9 10  1  0
 10 11  2  0
 11 12  1  0
 12 13  2  0
 13 14  1  0
 14 15  2  0
 15 16  1  0
 16 17  1  0
  7 18  1  0
 18 19  1  0
 18 20  1  0
 18 21  1  0
  6 22  1  0
 22 23  2  0
 23 24  1  0
 24 25  2  0
 25 26  1  0
 26 27  2  0
 27 28  1  0
 28 29  2  0
 28 30  2  0
  4 31  1  0
 31 32  2  0
 32  1  1  0
 28  5  1  0
 15 10  1  0
 27 22  1  0
  1 33  1  0
  2 34  1  0
  3 35  1  0
 11 36  1  0
 12 37  1  0
 13 38  1  0
 14 39  1  0
 17 40  1  0
 17 41  1  0
 17 42  1  0
 19 43  1  0
 19 44  1  0
 19 45  1  0
 20 46  1  0
 20 47  1  0
 20 48  1  0
 21 49  1  0
 21 50  1  0
 21 51  1  0
 23 52  1  0
 24 53  1  0
 25 54  1  0
 26 55  1  0
 31 56  1  0
 32 57  1  0
M  END
