
 OpenBabel09252516553D

 57 60  0  0  0  0  0  0  0  0999 V2000
    1.3097    0.0770    1.3682 H   0  0  0  0  0  0  0  0  0  0  0  0
    1.8821    0.0589    0.4484 C   0  0  0  0  0  3  0  0  0  0  0  0
    1.9230   -1.1566   -0.3495 C   0  0  0  0  0  3  0  0  0  0  0  0
    1.4539   -2.0569    0.0305 H   0  0  0  0  0  0  0  0  0  0  0  0
    2.8463   -1.2569   -1.4716 C   0  0  0  0  0  3  0  0  0  0  0  0
    3.0501   -2.2354   -1.8917 H   0  0  0  0  0  0  0  0  0  0  0  0
    3.7360   -0.1423   -1.8011 C   0  0  0  0  0  3  0  0  0  0  0  0
    4.7784   -0.4206   -2.7061 N   0  0  0  0  0  0  0  0  0  0  0  0
    4.7996   -0.1334   -4.1276 C   0  0  0  0  0  0  0  0  0  0  0  0
    4.1636    0.9761   -4.5714 C   0  0  0  0  0  0  0  0  0  0  0  0
    4.9344    1.8686   -5.5304 C   0  0  0  0  0  0  0  0  0  0  0  0
    5.5955    2.6342   -6.3531 C   0  0  0  0  0  0  0  0  0  0  0  0
    6.3663    3.5268   -7.3121 C   0  0  0  0  0  3  0  0  0  0  0  0
    5.6632    3.6410   -8.6102 C   0  0  0  0  0  3  0  0  0  0  0  0
    5.4332    2.7366   -9.1610 H   0  0  0  0  0  0  0  0  0  0  0  0
    4.9116    4.8621   -8.9006 C   0  0  0  0  0  3  0  0  0  0  0  0
    4.1453    4.8514   -9.6663 H   0  0  0  0  0  0  0  0  0  0  0  0
    5.0196    6.0085   -8.0059 C   0  0  0  0  0  3  0  0  0  0  0  0
    4.3573    6.8572   -8.1228 H   0  0  0  0  0  0  0  0  0  0  0  0
    5.9952    5.9913   -6.9239 C   0  0  0  0  0  3  0  0  0  0  0  0
    6.1974    6.8862   -6.3503 H   0  0  0  0  0  0  0  0  0  0  0  0
    6.8286    4.8062   -6.7372 C   0  0  0  0  0  3  0  0  0  0  0  0
    8.1667    5.1025   -6.5953 O   0  0  0  0  0  0  0  0  0  0  0  0
    9.0905    4.1603   -7.1273 C   0  0  0  0  0  0  0  0  0  0  0  0
    9.1487    3.2780   -6.4840 H   0  0  0  0  0  0  0  0  0  0  0  0
    8.8453    3.8800   -8.1580 H   0  0  0  0  0  0  0  0  0  0  0  0
   10.0756    4.6369   -7.1505 H   0  0  0  0  0  0  0  0  0  0  0  0
    2.2923    1.1508   -4.8315 Si  0  0  0  0  0  0  0  0  0  0  0  0
    1.5763   -0.5537   -5.2308 C   0  0  0  0  0  0  0  0  0  0  0  0
    1.7481   -1.2544   -4.4099 H   0  0  0  0  0  0  0  0  0  0  0  0
    0.4984   -0.4802   -5.4035 H   0  0  0  0  0  0  0  0  0  0  0  0
    2.0414   -0.9573   -6.1355 H   0  0  0  0  0  0  0  0  0  0  0  0
    1.3657    1.8602   -3.3729 C   0  0  0  0  0  0  0  0  0  0  0  0
    1.9041    2.7031   -2.9314 H   0  0  0  0  0  0  0  0  0  0  0  0
    0.3830    2.2223   -3.6927 H   0  0  0  0  0  0  0  0  0  0  0  0
    1.1912    1.1056   -2.6040 H   0  0  0  0  0  0  0  0  0  0  0  0
    1.9357    2.2732   -6.3211 C   0  0  0  0  0  0  0  0  0  0  0  0
    2.3045    3.2867   -6.1369 H   0  0  0  0  0  0  0  0  0  0  0  0
    2.4131    1.8823   -7.2246 H   0  0  0  0  0  0  0  0  0  0  0  0
    0.8577    2.3282   -6.4997 H   0  0  0  0  0  0  0  0  0  0  0  0
    6.1099   -0.5334   -4.6657 C   0  0  0  0  0  3  0  0  0  0  0  0
    6.4591   -0.9397   -6.0262 C   0  0  0  0  0  3  0  0  0  0  0  0
    5.6836   -1.2115   -6.7322 H   0  0  0  0  0  0  0  0  0  0  0  0
    7.8657   -1.0593   -6.3921 C   0  0  0  0  0  3  0  0  0  0  0  0
    8.1371   -1.4053   -7.3825 H   0  0  0  0  0  0  0  0  0  0  0  0
    8.9079   -0.7188   -5.4245 C   0  0  0  0  0  3  0  0  0  0  0  0
    9.8897   -0.4365   -5.7867 H   0  0  0  0  0  0  0  0  0  0  0  0
    8.5568   -0.4905   -4.0218 C   0  0  0  0  0  3  0  0  0  0  0  0
    9.2527    0.0160   -3.3635 H   0  0  0  0  0  0  0  0  0  0  0  0
    7.1575   -0.5724   -3.6581 C   0  0  0  0  0  3  0  0  0  0  0  0
    6.4153   -0.3289   -2.1178 S   0  0  0  0  0  0  0  0  0  0  0  0
    6.6997    1.0227   -1.6703 O   0  0  0  0  0  0  0  0  0  0  0  0
    6.6628   -1.4729   -1.2665 O   0  0  0  0  0  0  0  0  0  0  0  0
    3.7049    1.0618   -0.9788 C   0  0  0  0  0  3  0  0  0  0  0  0
    4.3411    1.9063   -1.2134 H   0  0  0  0  0  0  0  0  0  0  0  0
    2.7647    1.1695    0.1281 C   0  0  0  0  0  3  0  0  0  0  0  0
    2.7697    2.0543    0.7524 H   0  0  0  0  0  0  0  0  0  0  0  0
  1  2  1  0  0  0  0
  2  3  1  0  0  0  0
  2 56  1  0  0  0  0
  3  4  1  0  0  0  0
  3  5  1  0  0  0  0
  5  6  1  0  0  0  0
  5  7  1  0  0  0  0
  7  8  1  0  0  0  0
  7 54  1  0  0  0  0
  8  9  1  0  0  0  0
  8 51  1  0  0  0  0
  9 10  2  0  0  0  0
  9 41  1  0  0  0  0
 10 11  1  0  0  0  0
 10 28  1  0  0  0  0
 11 12  3  0  0  0  0
 12 13  1  0  0  0  0
 13 14  1  0  0  0  0
 13 22  1  0  0  0  0
 14 15  1  0  0  0  0
 14 16  1  0  0  0  0
 16 17  1  0  0  0  0
 16 18  1  0  0  0  0
 18 19  1  0  0  0  0
 18 20  1  0  0  0  0
 20 21  1  0  0  0  0
 20 22  1  0  0  0  0
 22 23  1  0  0  0  0
 23 24  1  0  0  0  0
 24 25  1  0  0  0  0
 24 26  1  0  0  0  0
 24 27  1  0  0  0  0
 28 29  1  0  0  0  0
 28 33  1  0  0  0  0
 28 37  1  0  0  0  0
 29 30  1  0  0  0  0
 29 31  1  0  0  0  0
 29 32  1  0  0  0  0
 33 34  1  0  0  0  0
 33 35  1  0  0  0  0
 33 36  1  0  0  0  0
 37 38  1  0  0  0  0
 37 39  1  0  0  0  0
 37 40  1  0  0  0  0
 41 42  1  0  0  0  0
 41 50  1  0  0  0  0
 42 43  1  0  0  0  0
 42 44  1  0  0  0  0
 44 45  1  0  0  0  0
 44 46  1  0  0  0  0
 46 47  1  0  0  0  0
 46 48  1  0  0  0  0
 48 49  1  0  0  0  0
 48 50  1  0  0  0  0
 50 51  1  0  0  0  0
 51 52  2  0  0  0  0
 51 53  2  0  0  0  0
 54 55  1  0  0  0  0
 54 56  1  0  0  0  0
 56 57  1  0  0  0  0
M  END
$$$$
