
 OpenBabel09252519243D

114121  0  0  0  0  0  0  0  0999 V2000
    0.9350    0.0506   -0.0567 C   0  0  0  0  0  0  0  0  0  0  0  0
    0.4617    0.0980    1.2812 O   0  0  0  0  0  0  0  0  0  0  0  0
   -0.4926   -0.8330    1.4529 C   0  0  0  0  0  0  0  0  0  0  0  0
   -1.5619   -0.2998    2.2921 C   0  0  0  0  0  0  0  0  0  0  0  0
   -1.5650    1.2192    1.9978 O   0  0  0  0  0  0  0  0  0  0  0  0
   -1.8875    1.9699    3.1592 C   0  0  0  0  0  0  0  0  0  0  0  0
   -0.1111    1.4592    1.5628 Eu  0  0  0  0  0  0  0  0  0  0  0  0
   -1.5623   -0.7516    2.0554 N   0  0  0  0  0  0  0  0  0  0  0  0
   -2.3265   -1.2604    1.1130 C   0  0  0  0  0  0  0  0  0  0  0  0
   -3.2674   -1.8868   -0.0474 S   0  0  0  0  0  0  0  0  0  0  0  0
    0.2687    0.5939    4.0813 N   0  0  0  0  0  0  0  0  0  0  0  0
    0.8337   -0.7417    4.3223 C   0  0  0  0  0  0  0  0  0  0  0  0
    2.0299   -1.0355    3.8597 C   0  0  0  0  0  0  0  0  0  0  0  0
    2.5428   -2.3032    4.1123 C   0  0  0  0  0  0  0  0  0  0  0  0
    2.0126   -2.9878    5.2285 C   0  0  0  0  0  0  0  0  0  0  0  0
    0.6589   -2.7855    5.4914 C   0  0  0  0  0  0  0  0  0  0  0  0
    0.0927   -1.6854    5.0422 C   0  0  0  0  0  0  0  0  0  0  0  0
   -1.3830   -1.4373    5.3087 C   0  0  0  0  0  0  0  0  0  0  0  0
   -2.2046   -2.5576    4.6919 C   0  0  0  0  0  0  0  0  0  0  0  0
   -1.6272   -1.3964    6.8084 C   0  0  0  0  0  0  0  0  0  0  0  0
    2.8314   -0.0145    3.0687 C   0  0  0  0  0  0  0  0  0  0  0  0
    4.1409    0.2682    3.7868 C   0  0  0  0  0  0  0  0  0  0  0  0
    3.1225   -0.5633    1.6815 C   0  0  0  0  0  0  0  0  0  0  0  0
   -0.0887    1.4565    5.2167 C   0  0  0  0  0  0  0  0  0  0  0  0
    0.7266    2.0723    6.0669 C   0  0  0  0  0  0  0  0  0  0  0  0
    1.6235    0.0840    3.0912 N   0  0  0  0  0  0  0  0  0  0  0  0
    2.9422    0.6546    3.4016 C   0  0  0  0  0  0  0  0  0  0  0  0
    3.0161    1.8003    4.0444 C   0  0  0  0  0  0  0  0  0  0  0  0
    4.2750    2.3135    4.3371 C   0  0  0  0  0  0  0  0  0  0  0  0
    5.3380    1.3846    4.3934 C   0  0  0  0  0  0  0  0  0  0  0  0
    5.2779    0.3219    3.4937 C   0  0  0  0  0  0  0  0  0  0  0  0
    4.1023   -0.0250    3.0140 C   0  0  0  0  0  0  0  0  0  0  0  0
    4.0037   -1.1773    2.0276 C   0  0  0  0  0  0  0  0  0  0  0  0
    4.8309   -0.8592    0.7926 C   0  0  0  0  0  0  0  0  0  0  0  0
    4.5304   -2.4467    2.6770 C   0  0  0  0  0  0  0  0  0  0  0  0
    1.7566    2.5445    4.4568 C   0  0  0  0  0  0  0  0  0  0  0  0
    1.7336    2.7027    5.9684 C   0  0  0  0  0  0  0  0  0  0  0  0
    1.7420    3.9169    3.8035 C   0  0  0  0  0  0  0  0  0  0  0  0
   -0.0337    2.9975    6.9157 C   0  0  0  0  0  0  0  0  0  0  0  0
    0.2685    3.9380    8.0113 C   0  0  0  0  0  0  0  0  0  0  0  0
   -0.7163    4.6301    8.5578 C   0  0  0  0  0  0  0  0  0  0  0  0
   -2.1199    4.4966    8.1095 C   0  0  0  0  0  0  0  0  0  0  0  0
   -2.3881    3.6604    7.1354 C   0  0  0  0  0  0  0  0  0  0  0  0
   -3.7174    3.3953    6.5590 C   0  0  0  0  0  0  0  0  0  0  0  0
   -3.8097    2.5166    5.5777 C   0  0  0  0  0  0  0  0  0  0  0  0
   -2.6658    1.7789    5.0169 C   0  0  0  0  0  0  0  0  0  0  0  0
   -1.4489    1.9590    5.4657 C   0  0  0  0  0  0  0  0  0  0  0  0
   -1.2751    2.9157    6.5589 C   0  0  0  0  0  0  0  0  0  0  0  0
   -0.0409    2.3569    0.3589 O   0  0  0  0  0  0  0  0  0  0  0  0
   -1.3558    2.6905   -0.0605 C   0  0  0  0  0  0  0  0  0  0  0  0
    0.6267    3.4794    0.6770 C   0  0  0  0  0  0  0  0  0  0  0  0
    1.4488    3.2498    1.8611 C   0  0  0  0  0  0  0  0  0  0  0  0
    0.6774    2.1805    2.6709 O   0  0  0  0  0  0  0  0  0  0  0  0
    1.5655    1.2939    3.3354 C   0  0  0  0  0  0  0  0  0  0  0  0
    0.5784    0.9059   -0.5917 H   0  0  0  0  0  0  0  0  0  0  0  0
    0.5784   -0.8403   -0.5299 H   0  0  0  0  0  0  0  0  0  0  0  0
    2.0050    0.0506   -0.0567 H   0  0  0  0  0  0  0  0  0  0  0  0
   -0.0660   -1.6912    1.9287 H   0  0  0  0  0  0  0  0  0  0  0  0
   -0.8938   -1.1097    0.5003 H   0  0  0  0  0  0  0  0  0  0  0  0
   -2.5073   -0.7561    2.0850 H   0  0  0  0  0  0  0  0  0  0  0  0
   -1.3585   -0.4842    3.3263 H   0  0  0  0  0  0  0  0  0  0  0  0
   -1.2406    1.6817    3.9613 H   0  0  0  0  0  0  0  0  0  0  0  0
   -1.7611    3.0129    2.9562 H   0  0  0  0  0  0  0  0  0  0  0  0
   -2.9039    1.7809    3.4351 H   0  0  0  0  0  0  0  0  0  0  0  0
    3.2998   -2.7375    3.4932 H   0  0  0  0  0  0  0  0  0  0  0  0
    2.6169   -3.6264    5.8384 H   0  0  0  0  0  0  0  0  0  0  0  0
    0.0940   -3.5064    6.0445 H   0  0  0  0  0  0  0  0  0  0  0  0
   -1.6716   -0.5028    4.8747 H   0  0  0  0  0  0  0  0  0  0  0  0
   -1.9160   -3.4921    5.1259 H   0  0  0  0  0  0  0  0  0  0  0  0
   -3.2434   -2.3829    4.8795 H   0  0  0  0  0  0  0  0  0  0  0  0
   -2.0326   -2.5864    3.6362 H   0  0  0  0  0  0  0  0  0  0  0  0
   -1.0489   -0.6077    7.2425 H   0  0  0  0  0  0  0  0  0  0  0  0
   -2.6661   -1.2217    6.9959 H   0  0  0  0  0  0  0  0  0  0  0  0
   -1.3386   -2.3309    7.2423 H   0  0  0  0  0  0  0  0  0  0  0  0
    2.2689    0.8917    2.9830 H   0  0  0  0  0  0  0  0  0  0  0  0
    4.7035   -0.6380    3.8726 H   0  0  0  0  0  0  0  0  0  0  0  0
    4.7051    0.9869    3.2301 H   0  0  0  0  0  0  0  0  0  0  0  0
    3.9360    0.6545    4.7634 H   0  0  0  0  0  0  0  0  0  0  0  0
    2.2006   -0.7623    1.1760 H   0  0  0  0  0  0  0  0  0  0  0  0
    3.6867    0.1554    1.1247 H   0  0  0  0  0  0  0  0  0  0  0  0
    3.6850   -1.4695    1.7673 H   0  0  0  0  0  0  0  0  0  0  0  0
    4.4306    3.3578    4.5106 H   0  0  0  0  0  0  0  0  0  0  0  0
    6.1446    1.4911    5.0884 H   0  0  0  0  0  0  0  0  0  0  0  0
    6.1652   -0.1990    3.2002 H   0  0  0  0  0  0  0  0  0  0  0  0
    2.9814   -1.3187    1.7453 H   0  0  0  0  0  0  0  0  0  0  0  0
    5.8532   -0.7177    1.0748 H   0  0  0  0  0  0  0  0  0  0  0  0
    4.7615   -1.6703    0.0982 H   0  0  0  0  0  0  0  0  0  0  0  0
    4.4601    0.0344    0.3355 H   0  0  0  0  0  0  0  0  0  0  0  0
    3.9481   -2.6706    3.5463 H   0  0  0  0  0  0  0  0  0  0  0  0
    4.4610   -3.2578    1.9826 H   0  0  0  0  0  0  0  0  0  0  0  0
    5.5528   -2.3052    2.9592 H   0  0  0  0  0  0  0  0  0  0  0  0
    0.8963    1.9910    4.1430 H   0  0  0  0  0  0  0  0  0  0  0  0
    2.5939    3.2563    6.2822 H   0  0  0  0  0  0  0  0  0  0  0  0
    0.8470    3.2266    6.2588 H   0  0  0  0  0  0  0  0  0  0  0  0
    1.7439    1.7367    6.4283 H   0  0  0  0  0  0  0  0  0  0  0  0
    1.7582    3.8055    2.7394 H   0  0  0  0  0  0  0  0  0  0  0  0
    0.8554    4.4407    4.0938 H   0  0  0  0  0  0  0  0  0  0  0  0
    2.6023    4.4704    4.1173 H   0  0  0  0  0  0  0  0  0  0  0  0
    1.2730    4.0586    8.3596 H   0  0  0  0  0  0  0  0  0  0  0  0
   -0.4904    5.3106    9.3521 H   0  0  0  0  0  0  0  0  0  0  0  0
   -2.8982    5.0690    8.5693 H   0  0  0  0  0  0  0  0  0  0  0  0
   -4.5857    3.9017    6.9258 H   0  0  0  0  0  0  0  0  0  0  0  0
   -4.7782    2.3286    5.1634 H   0  0  0  0  0  0  0  0  0  0  0  0
   -2.8325    1.0795    4.2245 H   0  0  0  0  0  0  0  0  0  0  0  0
   -1.8658    3.1959    0.7328 H   0  0  0  0  0  0  0  0  0  0  0  0
   -1.3055    3.3302   -0.9168 H   0  0  0  0  0  0  0  0  0  0  0  0
   -1.8870    1.7968   -0.3137 H   0  0  0  0  0  0  0  0  0  0  0  0
   -0.0752    4.2606    0.8815 H   0  0  0  0  0  0  0  0  0  0  0  0
    1.2548    3.7626   -0.1416 H   0  0  0  0  0  0  0  0  0  0  0  0
    1.6101    4.1461    2.4229 H   0  0  0  0  0  0  0  0  0  0  0  0
    2.4171    2.8883    1.5843 H   0  0  0  0  0  0  0  0  0  0  0  0
    2.1790    0.7962    2.6136 H   0  0  0  0  0  0  0  0  0  0  0  0
    2.1854    1.8482    4.0088 H   0  0  0  0  0  0  0  0  0  0  0  0
    1.0015    0.5691    3.8845 H   0  0  0  0  0  0  0  0  0  0  0  0
  1  2  1  0  0  0  0
  1 55  1  0  0  0  0
  1 56  1  0  0  0  0
  1 57  1  0  0  0  0
  2  3  1  0  0  0  0
  2  7  1  0  0  0  0
  3  4  1  0  0  0  0
  3 58  1  0  0  0  0
  3 59  1  0  0  0  0
  4  5  1  0  0  0  0
  4 60  1  0  0  0  0
  4 61  1  0  0  0  0
  5  6  1  0  0  0  0
  5  7  1  0  0  0  0
  6 62  1  0  0  0  0
  6 63  1  0  0  0  0
  6 64  1  0  0  0  0
  7  8  1  0  0  0  0
  7 11  1  0  0  0  0
  7 26  1  0  0  0  0
  7 49  1  0  0  0  0
  7 53  1  0  0  0  0
  8  9  2  0  0  0  0
  9 10  2  0  0  0  0
 11 12  1  0  0  0  0
 11 24  1  0  0  0  0
 12 13  1  0  0  0  0
 12 17  2  0  0  0  0
 13 14  2  0  0  0  0
 13 21  1  0  0  0  0
 14 15  1  0  0  0  0
 14 65  1  0  0  0  0
 15 16  2  0  0  0  0
 15 66  1  0  0  0  0
 16 17  1  0  0  0  0
 16 67  1  0  0  0  0
 17 18  1  0  0  0  0
 18 19  1  0  0  0  0
 18 20  1  0  0  0  0
 18 68  1  0  0  0  0
 19 69  1  0  0  0  0
 19 70  1  0  0  0  0
 19 71  1  0  0  0  0
 20 72  1  0  0  0  0
 20 73  1  0  0  0  0
 20 74  1  0  0  0  0
 21 22  1  0  0  0  0
 21 23  1  0  0  0  0
 21 75  1  0  0  0  0
 22 76  1  0  0  0  0
 22 77  1  0  0  0  0
 22 78  1  0  0  0  0
 23 79  1  0  0  0  0
 23 80  1  0  0  0  0
 23 81  1  0  0  0  0
 24 25  2  0  0  0  0
 24 47  1  0  0  0  0
 25 26  1  0  0  0  0
 25 39  1  0  0  0  0
 26 27  1  0  0  0  0
 27 28  1  0  0  0  0
 27 32  2  0  0  0  0
 28 29  2  0  0  0  0
 28 36  1  0  0  0  0
 29 30  1  0  0  0  0
 29 82  1  0  0  0  0
 30 31  2  0  0  0  0
 30 83  1  0  0  0  0
 31 32  1  0  0  0  0
 31 84  1  0  0  0  0
 32 33  1  0  0  0  0
 33 34  1  0  0  0  0
 33 35  1  0  0  0  0
 33 85  1  0  0  0  0
 34 86  1  0  0  0  0
 34 87  1  0  0  0  0
 34 88  1  0  0  0  0
 35 89  1  0  0  0  0
 35 90  1  0  0  0  0
 35 91  1  0  0  0  0
 36 37  1  0  0  0  0
 36 38  1  0  0  0  0
 36 92  1  0  0  0  0
 37 93  1  0  0  0  0
 37 94  1  0  0  0  0
 37 95  1  0  0  0  0
 38 96  1  0  0  0  0
 38 97  1  0  0  0  0
 38 98  1  0  0  0  0
 39 40  1  0  0  0  0
 39 48  2  0  0  0  0
 40 41  2  0  0  0  0
 40 99  1  0  0  0  0
 41 42  1  0  0  0  0
 41100  1  0  0  0  0
 42 43  2  0  0  0  0
 42101  1  0  0  0  0
 43 44  1  0  0  0  0
 43 48  1  0  0  0  0
 44 45  2  0  0  0  0
 44102  1  0  0  0  0
 45 46  1  0  0  0  0
 45103  1  0  0  0  0
 46 47  2  0  0  0  0
 46104  1  0  0  0  0
 47 48  1  0  0  0  0
 49 50  1  0  0  0  0
 49 51  1  0  0  0  0
 50105  1  0  0  0  0
 50106  1  0  0  0  0
 50107  1  0  0  0  0
 51 52  1  0  0  0  0
 51108  1  0  0  0  0
 51109  1  0  0  0  0
 52 53  1  0  0  0  0
 52110  1  0  0  0  0
 52111  1  0  0  0  0
 53 54  1  0  0  0  0
 54112  1  0  0  0  0
 54113  1  0  0  0  0
 54114  1  0  0  0  0
M  END
$$$$
