
     RDKit          3D

  0  0  0  0  0  0  0  0  0  0999 V3000
M  V30 BEGIN CTAB
M  V30 COUNTS 114 121 0 0 0
M  V30 BEGIN ATOM
M  V30 1 C -0.429700 -4.603641 -0.784082 0
M  V30 2 O -0.199462 -3.560528 0.025193 0
M  V30 3 C -0.119858 -4.260895 1.282359 0
M  V30 4 C -0.534326 -3.063068 2.081605 0
M  V30 5 O 0.322994 -2.208299 1.348779 0
M  V30 6 C 1.632877 -2.445740 1.767526 0
M  V30 7 Eu -0.214684 -1.699596 -0.383150 0 VAL=7
M  V30 8 N -2.198799 -2.131296 -0.729713 0
M  V30 9 C -2.969677 -2.837350 -0.048686 0
M  V30 10 S -4.118279 -3.411064 0.891389 0
M  V30 11 N 1.043343 -0.031798 -0.278907 0
M  V30 12 C 2.446302 0.257236 0.311218 0
M  V30 13 C 3.545098 -0.118913 -0.476846 0
M  V30 14 C 4.771631 -0.190115 0.209102 0
M  V30 15 C 4.921676 0.102199 1.574695 0
M  V30 16 C 3.819060 0.483861 2.284281 0
M  V30 17 C 2.609409 0.559183 1.650098 0
M  V30 18 C 1.576625 1.202072 2.445533 0
M  V30 19 C 1.924459 1.140030 3.910885 0
M  V30 20 C 1.764700 2.731051 2.133759 0
M  V30 21 C 3.866555 -0.153288 -1.885102 0
M  V30 22 C 4.852124 -1.212236 -2.310875 0
M  V30 23 C 4.897321 1.109394 -2.009628 0
M  V30 24 C 0.515860 1.152142 -0.719953 0
M  V30 25 C -0.776609 1.149745 -0.394769 0
M  V30 26 N -1.297912 -0.040796 0.285982 0
M  V30 27 C -2.479172 0.269979 1.025184 0
M  V30 28 C -2.533990 0.589250 2.305567 0
M  V30 29 C -3.762564 1.125941 2.630394 0
M  V30 30 C -4.886348 1.353725 1.817713 0
M  V30 31 C -4.722773 0.985331 0.520378 0
M  V30 32 C -3.497557 0.407662 0.002263 0
M  V30 33 C -3.974217 0.169120 -1.324834 0
M  V30 34 C -4.766309 1.125267 -2.118672 0
M  V30 35 C -5.105788 -0.921496 -1.224323 0
M  V30 36 C -1.857232 0.419929 3.500082 0
M  V30 37 C -1.901010 1.632161 4.461858 0
M  V30 38 C -0.900197 -0.582388 3.980413 0
M  V30 39 C -1.293499 2.471195 -0.889260 0
M  V30 40 C -2.434717 3.228889 -0.941614 0
M  V30 41 C -2.612668 4.470568 -1.481773 0
M  V30 42 C -1.554919 5.176937 -2.098036 0
M  V30 43 C -0.371051 4.465486 -2.074006 0
M  V30 44 C 0.765815 5.019305 -2.625435 0
M  V30 45 C 1.923390 4.259746 -2.559094 0
M  V30 46 C 1.886297 3.029330 -1.964304 0
M  V30 47 C 0.807628 2.416325 -1.401816 0
M  V30 48 C -0.301702 3.224844 -1.505503 0
M  V30 49 O -0.563628 -1.715410 -2.348390 0
M  V30 50 C -0.720746 -0.496575 -3.039824 0
M  V30 51 C 0.049074 -2.612959 -3.234338 0
M  V30 52 C 1.370756 -1.847996 -2.984122 0
M  V30 53 O 1.320005 -2.049382 -1.570051 0
M  V30 54 C 2.061686 -3.169018 -1.348896 0
M  V30 55 H -1.332523 -5.199168 -0.347383 0
M  V30 56 H -0.976841 -4.213195 -1.679911 0
M  V30 57 H 0.338192 -5.297160 -0.911658 0
M  V30 58 H -1.018622 -4.969526 1.302024 0
M  V30 59 H 0.783702 -4.740181 1.479677 0
M  V30 60 H -0.039350 -3.080872 3.082476 0
M  V30 61 H -1.564920 -2.787904 2.079286 0
M  V30 62 H 2.400584 -1.999049 1.138533 0
M  V30 63 H 1.814233 -3.493047 1.887291 0
M  V30 64 H 1.764747 -2.000517 2.815681 0
M  V30 65 H 5.749125 -0.460939 -0.199338 0
M  V30 66 H 5.883647 0.029683 2.089340 0
M  V30 67 H 4.006255 0.698395 3.323276 0
M  V30 68 H 0.560953 1.060102 2.151523 0
M  V30 69 H 2.331106 0.167911 4.224288 0
M  V30 70 H 1.066236 1.448406 4.549005 0
M  V30 71 H 2.700021 1.909674 4.113997 0
M  V30 72 H 2.048510 2.790657 1.084665 0
M  V30 73 H 2.602750 3.120386 2.742812 0
M  V30 74 H 0.831114 3.222822 2.367815 0
M  V30 75 H 3.152824 0.037049 -2.636562 0
M  V30 76 H 5.675759 -0.727464 -2.914128 0
M  V30 77 H 4.333195 -1.856965 -3.086124 0
M  V30 78 H 5.250357 -1.823795 -1.489531 0
M  V30 79 H 4.668812 1.552260 -2.964827 0
M  V30 80 H 4.761342 1.729951 -1.117499 0
M  V30 81 H 5.892244 0.676635 -1.979645 0
M  V30 82 H -4.067842 1.485618 3.641753 0
M  V30 83 H -5.780127 1.792362 2.233976 0
M  V30 84 H -5.701903 1.231747 0.054232 0
M  V30 85 H -3.263485 -0.231584 -1.985356 0
M  V30 86 H -4.261058 1.958498 -2.604369 0
M  V30 87 H -5.775789 1.273377 -1.749787 0
M  V30 88 H -5.000092 0.493076 -3.058758 0
M  V30 89 H -6.031194 -0.554252 -1.759205 0
M  V30 90 H -4.859379 -1.845566 -1.705296 0
M  V30 91 H -5.328881 -1.087469 -0.150991 0
M  V30 92 H -2.758189 -0.158527 4.152237 0
M  V30 93 H -2.854795 1.688613 4.932929 0
M  V30 94 H -1.151505 1.444407 5.281478 0
M  V30 95 H -1.490324 2.533632 3.982318 0
M  V30 96 H -0.033002 -0.729515 3.381682 0
M  V30 97 H -1.422358 -1.550244 4.198345 0
M  V30 98 H -0.484359 -0.279359 5.003119 0
M  V30 99 H -3.308383 2.878162 -0.499530 0
M  V30 100 H -3.575204 4.975190 -1.468536 0
M  V30 101 H -1.606952 6.131608 -2.542391 0
M  V30 102 H 0.730110 5.998633 -3.082831 0
M  V30 103 H 2.851477 4.634971 -2.965113 0
M  V30 104 H 2.782383 2.489679 -1.929267 0
M  V30 105 H -1.129049 0.323914 -2.516063 0
M  V30 106 H -0.096051 -0.322660 -3.896425 0
M  V30 107 H -1.707887 -0.839012 -3.617642 0
M  V30 108 H -0.286789 -2.215216 -4.211381 0
M  V30 109 H 0.104716 -3.626964 -3.134526 0
M  V30 110 H 1.382336 -0.852870 -3.308935 0
M  V30 111 H 2.101526 -2.543454 -3.349956 0
M  V30 112 H 3.118388 -3.035030 -1.590352 0
M  V30 113 H 1.930002 -3.706268 -0.401900 0
M  V30 114 H 1.694914 -3.913705 -2.128793 0
M  V30 END ATOM
M  V30 BEGIN BOND
M  V30 1 1 1 2
M  V30 2 1 2 3
M  V30 3 1 3 4
M  V30 4 1 4 5
M  V30 5 1 5 6
M  V30 6 9 5 7
M  V30 7 1 7 8
M  V30 8 2 8 9
M  V30 9 2 9 10
M  V30 10 1 7 11
M  V30 11 1 11 12
M  V30 12 2 12 13
M  V30 13 1 13 14
M  V30 14 2 14 15
M  V30 15 1 15 16
M  V30 16 2 16 17
M  V30 17 1 17 18
M  V30 18 1 18 19
M  V30 19 1 18 20
M  V30 20 1 13 21
M  V30 21 1 21 22
M  V30 22 1 21 23
M  V30 23 1 11 24
M  V30 24 2 24 25
M  V30 25 1 25 26
M  V30 26 1 26 27
M  V30 27 2 27 28
M  V30 28 1 28 29
M  V30 29 2 29 30
M  V30 30 1 30 31
M  V30 31 2 31 32
M  V30 32 1 32 33
M  V30 33 1 33 34
M  V30 34 1 33 35
M  V30 35 1 28 36
M  V30 36 1 36 37
M  V30 37 1 36 38
M  V30 38 1 25 39
M  V30 39 2 39 40
M  V30 40 1 40 41
M  V30 41 2 41 42
M  V30 42 1 42 43
M  V30 43 2 43 44
M  V30 44 1 44 45
M  V30 45 2 45 46
M  V30 46 1 46 47
M  V30 47 2 47 48
M  V30 48 9 49 7
M  V30 49 1 49 50
M  V30 50 1 49 51
M  V30 51 1 51 52
M  V30 52 1 52 53
M  V30 53 1 53 54
M  V30 54 9 2 7
M  V30 55 1 17 12
M  V30 56 1 47 24
M  V30 57 1 26 7
M  V30 58 1 32 27
M  V30 59 1 48 39
M  V30 60 9 53 7
M  V30 61 1 48 43
M  V30 62 1 1 55
M  V30 63 1 1 56
M  V30 64 1 1 57
M  V30 65 1 3 58
M  V30 66 1 3 59
M  V30 67 1 4 60
M  V30 68 1 4 61
M  V30 69 1 6 62
M  V30 70 1 6 63
M  V30 71 1 6 64
M  V30 72 1 14 65
M  V30 73 1 15 66
M  V30 74 1 16 67
M  V30 75 1 18 68
M  V30 76 1 19 69
M  V30 77 1 19 70
M  V30 78 1 19 71
M  V30 79 1 20 72
M  V30 80 1 20 73
M  V30 81 1 20 74
M  V30 82 1 21 75
M  V30 83 1 22 76
M  V30 84 1 22 77
M  V30 85 1 22 78
M  V30 86 1 23 79
M  V30 87 1 23 80
M  V30 88 1 23 81
M  V30 89 1 29 82
M  V30 90 1 30 83
M  V30 91 1 31 84
M  V30 92 1 33 85
M  V30 93 1 34 86
M  V30 94 1 34 87
M  V30 95 1 34 88
M  V30 96 1 35 89
M  V30 97 1 35 90
M  V30 98 1 35 91
M  V30 99 1 36 92
M  V30 100 1 37 93
M  V30 101 1 37 94
M  V30 102 1 37 95
M  V30 103 1 38 96
M  V30 104 1 38 97
M  V30 105 1 38 98
M  V30 106 1 40 99
M  V30 107 1 41 100
M  V30 108 1 42 101
M  V30 109 1 44 102
M  V30 110 1 45 103
M  V30 111 1 46 104
M  V30 112 1 50 105
M  V30 113 1 50 106
M  V30 114 1 50 107
M  V30 115 1 51 108
M  V30 116 1 51 109
M  V30 117 1 52 110
M  V30 118 1 52 111
M  V30 119 1 54 112
M  V30 120 1 54 113
M  V30 121 1 54 114
M  V30 END BOND
M  V30 END CTAB
M  END
