
  --CCDC--092525    3D                              

 73 75  0  0  0  0  0  0  0  0999 V2000
   -1.0707    0.7206   -0.1996 H      0
   -0.2813    1.4562   -0.0853 C      0
    0.8364    1.4048   -0.8864 C      0
    0.9322    0.6211   -1.6306 H      0
    1.8400    2.3487   -0.7457 C      0
    2.7213    2.2811   -1.3740 H      0
    1.7449    3.3745    0.1912 C      0
    2.8461    4.4190    0.2618 C      0
    3.4323    5.1827   -0.4598 C      0
    3.5212    5.6419   -1.8815 C      0
    3.0632    4.8499   -2.9323 C      0
    2.6441    3.8729   -2.7323 H      0
    3.1325    5.2897   -4.2440 C      0
    2.7713    4.6537   -5.0455 H      0
    3.6559    6.5284   -4.5373 C      0
    3.7087    6.8701   -5.5657 H      0
    4.1114    7.3302   -3.5158 C      0
    4.5248    8.3082   -3.7395 H      0
    4.0446    6.8931   -2.2036 C      0
    4.4109    7.5365   -1.4107 H      0
    3.9566    5.5738    1.3489 Co     3
    4.9168    7.1924    1.7778 N      0
    5.5049    8.1477    2.0026 C      0
    6.2416    9.3778    2.2576 C      0
    6.3146    9.9781    1.3532 H      0
    7.2503    9.1589    2.6015 H      0
    5.7451    9.9735    3.0207 H      0
    2.3417    7.1395    1.8862 P      0
    0.6396    6.5383    2.0088 C      0
   -0.0430    7.3659    2.1900 H      0
    0.5132    5.8222    2.8140 H      0
    0.3392    6.0548    1.0816 H      0
    2.2306    7.8107    0.2119 C      0
    1.5322    8.6446    0.1870 H      0
    1.8704    7.0649   -0.4911 H      0
    3.1984    8.1763   -0.1223 H      0
    2.7169    7.7598    3.5494 C      0
    3.4303    8.5752    3.5352 H      0
    3.1124    7.0065    4.2159 H      0
    1.8086    8.1493    4.0044 H      0
    6.1981    4.9887    1.1039 P      0
    7.3954    5.4949    2.3649 C      0
    7.7864    4.6318    2.8966 H      0
    6.9772    6.1864    3.0888 H      0
    8.2435    5.9860    1.8925 H      0
    6.1485    3.2096    1.3988 C      0
    7.0700    2.7467    1.0518 H      0
    5.3184    2.7459    0.8699 H      0
    6.0614    2.9893    2.4572 H      0
    6.5671    6.0834   -0.2888 C      0
    6.2388    7.1067   -0.1357 H      0
    6.1045    5.6970   -1.1904 H      0
    7.6400    6.1049   -0.4680 H      0
    3.7907    4.4952    3.4074 P      0
    3.3775    2.7766    2.9968 C      0
    3.9833    2.3358    2.2179 H      0
    2.3452    2.6860    2.6882 H      0
    3.4938    2.1554    3.8825 H      0
    2.2192    4.6163    4.3032 C      0
    2.3603    4.3233    5.3415 H      0
    1.4902    3.9337    3.8746 H      0
    1.7783    5.6040    4.2987 H      0
    4.9246    5.4178    4.4793 C      0
    5.1183    6.4269    4.1368 H      0
    5.8813    4.9176    4.5541 H      0
    4.5186    5.4782    5.4869 H      0
    0.6182    3.3872    1.0104 C      0
    0.5286    4.1324    1.7871 H      0
   -0.3863    2.4446    0.8666 C      0
   -1.2589    2.4834    1.5103 H      0
    2.6130    8.5109    1.8096 H      0
    6.6419    4.2526   -0.0011 H      0
    4.8187    3.6217    3.7747 H      0
  1  2  1
  2  3  4
  3  4  1
  3  5  4
  5  6  1
  5  7  4
  7  8  1
  8  9  3
  9 10  1
 10 11  4
 11 12  1
 11 13  4
 13 14  1
 13 15  4
 15 16  1
 15 17  4
 17 18  1
 17 19  4
 10 19  4
 19 20  1
  9 21  1
  8 21  1
 21 22  1
 22 23  3
 23 24  1
 24 25  1
 24 26  1
 24 27  1
 21 28  1
 28 29  1
 29 30  1
 29 31  1
 29 32  1
 28 33  1
 33 34  1
 33 35  1
 33 36  1
 28 37  1
 37 38  1
 37 39  1
 37 40  1
 21 41  1
 41 42  1
 42 43  1
 42 44  1
 42 45  1
 41 46  1
 46 47  1
 46 48  1
 46 49  1
 41 50  1
 50 51  1
 50 52  1
 50 53  1
 21 54  1
 54 55  1
 55 56  1
 55 57  1
 55 58  1
 54 59  1
 59 60  1
 59 61  1
 59 62  1
 54 63  1
 63 64  1
 63 65  1
 63 66  1
  7 67  4
 67 68  1
 67 69  4
  2 69  4
 69 70  1
 28 71  1
 41 72  1
 54 73  1
M  CHG  1  21   1
M  END
$$$$
