
 OpenBabel09252517553D

 44 49  0  0  0  0  0  0  0  0999 V2000
    1.0241   -0.0707   -0.0665 C   0  0  0  0  0  0  0  0  0  0  0  0
    0.5175   -0.9459    1.0683 C   0  0  0  0  0  0  0  0  0  0  0  0
    1.3577   -3.0536    2.7062 C   0  0  0  0  0  0  0  0  0  0  0  0
   -0.2432   -2.1838    1.5274 Ir  0  0  0  0  0  0  0  0  0  0  0  0
    0.4791   -0.8425    3.8598 C   0  0  0  0  0  0  0  0  0  0  0  0
    0.3053   -1.2095    2.5614 C   0  0  0  0  0  0  0  0  0  0  0  0
    0.3216   -3.5710    1.3629 C   0  0  0  0  0  0  0  0  0  0  0  0
    1.5902   -4.0864    1.4581 C   0  0  0  0  0  0  0  0  0  0  0  0
    2.7586   -3.1759    1.7993 C   0  0  0  0  0  0  0  0  0  0  0  0
   -2.4252   -1.2057    2.1852 P   0  0  0  0  0  4  0  0  0  0  0  0
   -2.1442    0.2189    3.2989 C   0  0  0  0  0  0  0  0  0  0  0  0
   -1.4183    1.1380    2.6686 F   0  0  0  0  0  0  0  0  0  0  0  0
   -3.3143    0.7434    3.6517 F   0  0  0  0  0  0  0  0  0  0  0  0
   -1.4956   -0.1893    4.3859 F   0  0  0  0  0  0  0  0  0  0  0  0
   -3.3176   -0.6440    0.6896 C   0  0  0  0  0  0  0  0  0  0  0  0
   -2.5918    0.2750    0.0592 F   0  0  0  0  0  0  0  0  0  0  0  0
   -3.5218   -1.6794   -0.1199 F   0  0  0  0  0  0  0  0  0  0  0  0
   -4.4878   -0.1195    1.0423 F   0  0  0  0  0  0  0  0  0  0  0  0
    1.8055   -5.4510    1.2405 C   0  0  0  0  0  0  0  0  0  0  0  0
    0.7209   -6.2790    0.9394 C   0  0  0  0  0  0  0  0  0  0  0  0
   -0.5480   -5.7545    0.8529 C   0  0  0  0  0  0  0  0  0  0  0  0
   -0.7636   -4.3920    1.0629 C   0  0  0  0  0  0  0  0  0  0  0  0
   -1.9397   -3.6423    1.0285 C   0  0  0  0  0  0  0  0  0  0  0  0
   -1.7231   -2.3400    1.2895 P   0  0  0  0  0  4  0  0  0  0  0  0
   -2.2788   -1.2900   -0.1024 C   0  0  0  0  0  0  0  0  0  0  0  0
   -3.5835   -1.4624   -0.2945 F   0  0  0  0  0  0  0  0  0  0  0  0
   -2.0374   -0.0132    0.1814 F   0  0  0  0  0  0  0  0  0  0  0  0
   -1.6193   -1.6312   -1.2059 F   0  0  0  0  0  0  0  0  0  0  0  0
   -2.6576   -1.8321    2.7787 C   0  0  0  0  0  0  0  0  0  0  0  0
   -2.2987   -2.5936    3.8084 F   0  0  0  0  0  0  0  0  0  0  0  0
   -2.3924   -0.5585    3.0556 F   0  0  0  0  0  0  0  0  0  0  0  0
   -3.9607   -1.9750    2.5545 F   0  0  0  0  0  0  0  0  0  0  0  0
    0.6675    0.9292    0.0676 H   0  0  0  0  0  0  0  0  0  0  0  0
    0.6675   -0.4544   -0.9995 H   0  0  0  0  0  0  0  0  0  0  0  0
    2.0941   -0.0707   -0.0665 H   0  0  0  0  0  0  0  0  0  0  0  0
    1.2030   -3.9812    3.2167 H   0  0  0  0  0  0  0  0  0  0  0  0
    0.0844   -1.4522    4.6455 H   0  0  0  0  0  0  0  0  0  0  0  0
    2.5915   -2.7241    2.7547 H   0  0  0  0  0  0  0  0  0  0  0  0
    3.6611   -3.7498    1.8291 H   0  0  0  0  0  0  0  0  0  0  0  0
    2.7931   -5.8579    1.3042 H   0  0  0  0  0  0  0  0  0  0  0  0
    0.8779   -7.3246    0.7754 H   0  0  0  0  0  0  0  0  0  0  0  0
   -1.3739   -6.3949    0.6234 H   0  0  0  0  0  0  0  0  0  0  0  0
   -2.3454   -3.7151    0.0411 H   0  0  0  0  0  0  0  0  0  0  0  0
   -2.6174   -4.0316    1.7592 H   0  0  0  0  0  0  0  0  0  0  0  0
  1  2  1  0  0  0  0
  1 33  1  0  0  0  0
  1 34  1  0  0  0  0
  1 35  1  0  0  0  0
  2  3  2  0  0  0  0
  2  4  1  0  0  0  0
  2  6  1  0  0  0  0
  3  4  1  0  0  0  0
  3 36  1  0  0  0  0
  4  5  1  0  0  0  0
  4  6  1  0  0  0  0
  4  7  1  0  0  0  0
  4 10  1  0  0  0  0
  4 24  1  0  0  0  0
  5  6  2  0  0  0  0
  5 37  1  0  0  0  0
  7  8  1  0  0  0  0
  7 22  2  0  0  0  0
  8  9  1  0  0  0  0
  8 19  2  0  0  0  0
  9 10  1  0  0  0  0
  9 38  1  0  0  0  0
  9 39  1  0  0  0  0
 10 11  1  0  0  0  0
 10 15  1  0  0  0  0
 11 12  1  0  0  0  0
 11 13  1  0  0  0  0
 11 14  1  0  0  0  0
 15 16  1  0  0  0  0
 15 17  1  0  0  0  0
 15 18  1  0  0  0  0
 19 20  1  0  0  0  0
 19 40  1  0  0  0  0
 20 21  2  0  0  0  0
 20 41  1  0  0  0  0
 21 22  1  0  0  0  0
 21 42  1  0  0  0  0
 22 23  1  0  0  0  0
 23 24  1  0  0  0  0
 23 43  1  0  0  0  0
 23 44  1  0  0  0  0
 24 25  1  0  0  0  0
 24 29  1  0  0  0  0
 25 26  1  0  0  0  0
 25 27  1  0  0  0  0
 25 28  1  0  0  0  0
 29 30  1  0  0  0  0
 29 31  1  0  0  0  0
 29 32  1  0  0  0  0
M  END
$$$$
