
 OpenBabel09252512553D

 49 54  0  0  0  0  0  0  0  0999 V2000
    1.0074    0.0695   -0.0715 C   0  0  0  0  0  0  0  0  0  0  0  0
    0.5007    0.6494    1.2390 C   0  0  0  0  0  0  0  0  0  0  0  0
    0.8186    0.0750    2.3791 N   0  0  0  0  0  0  0  0  0  0  0  0
    1.6637   -1.1278    2.3856 C   0  0  0  0  0  0  0  0  0  0  0  0
    2.9304   -0.8527    3.1795 C   0  0  0  0  0  0  0  0  0  0  0  0
    2.5632   -0.4838    4.6076 C   0  0  0  0  0  0  0  0  0  0  0  0
    1.8282   -1.5958    5.2274 N   0  0  0  0  0  0  0  0  0  0  0  0
    2.2728   -2.8091    4.9622 C   0  0  0  0  0  0  0  0  0  0  0  0
    1.7091   -3.8631    5.5514 C   0  0  0  0  0  0  0  0  0  0  0  0
    0.6335   -3.6837    6.4481 C   0  0  0  0  0  0  0  0  0  0  0  0
    0.1928   -2.4472    6.7075 O   0  0  0  0  0  0  0  0  0  0  0  0
    0.7638   -1.4110    6.1284 Cu  0  0  0  0  0  0  0  0  0  0  0  0
   -0.6607   -0.4580    5.1370 O   0  0  0  0  0  0  0  0  0  0  0  0
   -0.3501    0.7163    4.4015 C   0  0  0  0  0  0  0  0  0  0  0  0
    0.5955    0.6814    3.3391 C   0  0  0  0  0  0  0  0  0  0  0  0
    1.2238    1.8713    2.9365 C   0  0  0  0  0  0  0  0  0  0  0  0
    0.7566    3.0193    3.3306 C   0  0  0  0  0  0  0  0  0  0  0  0
   -0.3799    3.0719    4.1485 C   0  0  0  0  0  0  0  0  0  0  0  0
   -0.8296    1.8965    4.7979 C   0  0  0  0  0  0  0  0  0  0  0  0
    0.0474   -4.8049    7.0781 C   0  0  0  0  0  0  0  0  0  0  0  0
    0.4891   -6.0577    6.8420 C   0  0  0  0  0  0  0  0  0  0  0  0
    1.5580   -6.3044    5.9504 C   0  0  0  0  0  0  0  0  0  0  0  0
    2.0112   -7.6095    5.7100 C   0  0  0  0  0  0  0  0  0  0  0  0
    3.0455   -7.8179    4.8452 C   0  0  0  0  0  0  0  0  0  0  0  0
    3.6601   -6.7530    4.1967 C   0  0  0  0  0  0  0  0  0  0  0  0
    3.2428   -5.4705    4.4101 C   0  0  0  0  0  0  0  0  0  0  0  0
    2.1859   -5.2244    5.2889 C   0  0  0  0  0  0  0  0  0  0  0  0
    0.6507    0.6643   -0.8863 H   0  0  0  0  0  0  0  0  0  0  0  0
    0.6508   -0.9335   -0.1792 H   0  0  0  0  0  0  0  0  0  0  0  0
    2.0774    0.0695   -0.0715 H   0  0  0  0  0  0  0  0  0  0  0  0
    0.4786    0.4641    3.2585 H   0  0  0  0  0  0  0  0  0  0  0  0
    1.1287   -1.9372    2.8368 H   0  0  0  0  0  0  0  0  0  0  0  0
    1.9222   -1.3875    1.3803 H   0  0  0  0  0  0  0  0  0  0  0  0
    3.5455   -1.7282    3.1842 H   0  0  0  0  0  0  0  0  0  0  0  0
    3.4654   -0.0433    2.7283 H   0  0  0  0  0  0  0  0  0  0  0  0
    3.4548   -0.2901    5.1665 H   0  0  0  0  0  0  0  0  0  0  0  0
    1.9480    0.3917    4.6029 H   0  0  0  0  0  0  0  0  0  0  0  0
    2.6028   -2.1418    4.8503 H   0  0  0  0  0  0  0  0  0  0  0  0
    3.0828   -2.9464    4.2768 H   0  0  0  0  0  0  0  0  0  0  0  0
    0.8259   -0.2427    2.8514 H   0  0  0  0  0  0  0  0  0  0  0  0
    2.0869    1.8333    2.3053 H   0  0  0  0  0  0  0  0  0  0  0  0
    1.2409    3.9249    3.0299 H   0  0  0  0  0  0  0  0  0  0  0  0
   -0.9049    3.9947    4.2816 H   0  0  0  0  0  0  0  0  0  0  0  0
   -0.7654   -4.6568    7.7580 H   0  0  0  0  0  0  0  0  0  0  0  0
    0.0209   -6.8811    7.3398 H   0  0  0  0  0  0  0  0  0  0  0  0
    1.5477   -8.4385    6.2029 H   0  0  0  0  0  0  0  0  0  0  0  0
    3.3885   -8.8150    4.6635 H   0  0  0  0  0  0  0  0  0  0  0  0
    4.4696   -6.9404    3.5226 H   0  0  0  0  0  0  0  0  0  0  0  0
    3.7233   -4.6580    3.9063 H   0  0  0  0  0  0  0  0  0  0  0  0
  1  2  1  0  0  0  0
  1 28  1  0  0  0  0
  1 29  1  0  0  0  0
  1 30  1  0  0  0  0
  2  3  2  0  0  0  0
  2 19  1  0  0  0  0
  3  4  1  0  0  0  0
  3 12  1  0  0  0  0
  3 31  1  0  0  0  0
  4  5  1  0  0  0  0
  4 32  1  0  0  0  0
  4 33  1  0  0  0  0
  5  6  1  0  0  0  0
  5 34  1  0  0  0  0
  5 35  1  0  0  0  0
  6  7  1  0  0  0  0
  6 36  1  0  0  0  0
  6 37  1  0  0  0  0
  7  8  2  0  0  0  0
  7 12  1  0  0  0  0
  7 38  1  0  0  0  0
  8  9  1  0  0  0  0
  8 39  1  0  0  0  0
  9 10  1  0  0  0  0
  9 27  2  0  0  0  0
 10 11  1  0  0  0  0
 10 20  2  0  0  0  0
 11 12  1  0  0  0  0
 12 13  1  0  0  0  0
 13 14  1  0  0  0  0
 14 15  1  0  0  0  0
 14 19  2  0  0  0  0
 15 16  2  0  0  0  0
 15 40  1  0  0  0  0
 16 17  1  0  0  0  0
 16 41  1  0  0  0  0
 17 18  2  0  0  0  0
 17 42  1  0  0  0  0
 18 19  1  0  0  0  0
 18 43  1  0  0  0  0
 20 21  1  0  0  0  0
 20 44  1  0  0  0  0
 21 22  2  0  0  0  0
 21 45  1  0  0  0  0
 22 23  1  0  0  0  0
 22 27  1  0  0  0  0
 23 24  2  0  0  0  0
 23 46  1  0  0  0  0
 24 25  1  0  0  0  0
 24 47  1  0  0  0  0
 25 26  2  0  0  0  0
 25 48  1  0  0  0  0
 26 27  1  0  0  0  0
 26 49  1  0  0  0  0
M  END
$$$$
