
     RDKit          3D

  0  0  0  0  0  0  0  0  0  0999 V3000
M  V30 BEGIN CTAB
M  V30 COUNTS 53 60 0 0 0
M  V30 BEGIN ATOM
M  V30 1 C 2.886405 2.004488 -3.511569 0
M  V30 2 C 2.122435 1.411060 -2.520263 0
M  V30 3 N 1.464610 0.874477 -1.659341 0
M  V30 4 Fe 0.325985 -0.062136 -0.199431 0 CHG=3 VAL=6
M  V30 5 N 1.799350 -1.502766 -0.395909 0
M  V30 6 C 2.639825 -2.353084 -0.514639 0
M  V30 7 C 3.618688 -3.342631 -0.628455 0
M  V30 8 C -1.305182 -1.428337 -0.108483 0 RAD=2 VAL=3
M  V30 9 N -1.659280 -2.003905 0.991742 0
M  V30 10 C -1.866101 -1.427605 2.306202 0
M  V30 11 N -0.502762 -1.001782 2.544137 0
M  V30 12 C 0.339894 -1.502562 3.615038 0
M  V30 13 C 1.407496 -0.688523 3.726451 0
M  V30 14 N 1.250523 0.340407 2.722604 0
M  V30 15 C 1.931751 1.593694 2.526990 0
M  V30 16 N 0.987588 2.299246 1.670523 0
M  V30 17 C 0.848273 3.698391 1.333110 0
M  V30 18 C -0.344763 3.844959 0.726159 0
M  V30 19 N -0.964270 2.538135 0.677970 0
M  V30 20 C -2.355612 2.276033 0.368444 0
M  V30 21 N -2.143291 1.534575 -0.846746 0
M  V30 22 C -2.594061 1.975192 -2.153298 0
M  V30 23 C -2.502369 0.936353 -3.004547 0
M  V30 24 N -1.989360 -0.180178 -2.242255 0
M  V30 25 C -1.898314 -1.599953 -2.541174 0
M  V30 26 N -1.703915 -2.154457 -1.215455 0
M  V30 27 C -1.850506 -3.497096 -0.692048 0
M  V30 28 C -1.822816 -3.403052 0.651595 0
M  V30 29 C -1.560909 0.404118 -1.067715 0 RAD=2 VAL=3
M  V30 30 C -0.037644 1.685233 0.963900 0 RAD=2 VAL=3
M  V30 31 C 0.239139 -0.146565 1.921007 0 RAD=2 VAL=3
M  V30 32 H 3.038088 3.088695 -3.232947 0
M  V30 33 H 2.298444 1.919691 -4.474710 0
M  V30 34 H 3.893599 1.565107 -3.683172 0
M  V30 35 H 3.946197 -3.769670 0.350464 0
M  V30 36 H 4.543976 -3.025468 -1.164016 0
M  V30 37 H 3.145719 -4.169500 -1.237619 0
M  V30 38 H -2.498239 -0.524301 2.156980 0
M  V30 39 H -2.277175 -2.119499 3.048234 0
M  V30 40 H 0.266103 -2.367189 4.303904 0
M  V30 41 H 2.235748 -0.789227 4.443255 0
M  V30 42 H 2.047785 2.118445 3.496200 0
M  V30 43 H 2.884507 1.494096 2.001387 0
M  V30 44 H 1.581490 4.498634 1.534972 0
M  V30 45 H -0.645820 4.853118 0.386003 0
M  V30 46 H -2.979366 3.172440 0.279385 0
M  V30 47 H -2.754674 1.643063 1.190270 0
M  V30 48 H -2.971294 2.943681 -2.537458 0
M  V30 49 H -2.770499 0.946761 -4.073184 0
M  V30 50 H -2.823833 -2.002505 -2.988506 0
M  V30 51 H -1.035490 -1.841959 -3.201955 0
M  V30 52 H -1.963643 -4.422606 -1.284114 0
M  V30 53 H -1.922430 -4.333536 1.242082 0
M  V30 END ATOM
M  V30 BEGIN BOND
M  V30 1 1 1 2
M  V30 2 3 2 3
M  V30 3 9 3 4
M  V30 4 9 5 4
M  V30 5 3 5 6
M  V30 6 1 6 7
M  V30 7 1 4 8
M  V30 8 1 8 9
M  V30 9 1 9 10
M  V30 10 1 10 11
M  V30 11 1 11 12
M  V30 12 2 12 13
M  V30 13 1 13 14
M  V30 14 1 14 15
M  V30 15 1 15 16
M  V30 16 1 16 17
M  V30 17 2 17 18
M  V30 18 1 18 19
M  V30 19 1 19 20
M  V30 20 1 20 21
M  V30 21 1 21 22
M  V30 22 2 22 23
M  V30 23 1 23 24
M  V30 24 1 24 25
M  V30 25 1 25 26
M  V30 26 1 26 27
M  V30 27 2 27 28
M  V30 28 1 24 29
M  V30 29 1 19 30
M  V30 30 1 14 31
M  V30 31 1 29 4
M  V30 32 1 30 4
M  V30 33 1 31 4
M  V30 34 1 26 8
M  V30 35 1 28 9
M  V30 36 1 31 11
M  V30 37 1 30 16
M  V30 38 1 29 21
M  V30 39 1 1 32
M  V30 40 1 1 33
M  V30 41 1 1 34
M  V30 42 1 7 35
M  V30 43 1 7 36
M  V30 44 1 7 37
M  V30 45 1 10 38
M  V30 46 1 10 39
M  V30 47 1 12 40
M  V30 48 1 13 41
M  V30 49 1 15 42
M  V30 50 1 15 43
M  V30 51 1 17 44
M  V30 52 1 18 45
M  V30 53 1 20 46
M  V30 54 1 20 47
M  V30 55 1 22 48
M  V30 56 1 23 49
M  V30 57 1 25 50
M  V30 58 1 25 51
M  V30 59 1 27 52
M  V30 60 1 28 53
M  V30 END BOND
M  V30 END CTAB
M  END
