
     RDKit          3D

 62 63  0  0  0  0  0  0  0  0999 V2000
   -1.5530    0.9357    1.6430 C   0  0  0  0  0  0  0  0  0  0  0  0
   -1.2720    0.5852   -0.1615 Pt  0  0  0  0  0  6  0  0  0  0  0  0
   -0.1859    2.1797   -0.6648 C   0  0  0  0  0  0  0  0  0  0  0  0
   -1.7036    0.1066   -1.8929 C   0  0  0  0  0  0  0  0  0  0  0  0
    0.5142   -0.2436    0.0439 N   0  0  0  0  0  0  0  0  0  0  0  0
    1.3254   -0.2894    1.0745 N   0  0  0  0  0  0  0  0  0  0  0  0
    2.4615   -0.8733    0.8601 C   0  0  0  0  0  0  0  0  0  0  0  0
    3.3773   -0.9222    2.0142 C   0  0  0  0  0  0  0  0  0  0  0  0
    4.5913   -0.0399    1.8264 C   0  0  0  0  0  0  0  0  0  0  0  0
    5.4290   -0.4904    0.6784 C   0  0  0  0  0  0  0  0  0  0  0  0
    4.8155   -0.1540   -0.6629 C   0  0  0  0  0  0  0  0  0  0  0  0
    4.5827   -1.4075   -1.4803 C   0  0  0  0  0  0  0  0  0  0  0  0
    3.1966   -1.9294   -1.4587 C   0  0  0  0  0  0  0  0  0  0  0  0
    2.4052   -1.2470   -0.4092 C   0  0  0  0  0  0  0  0  0  0  0  0
    1.2470   -0.8587   -0.8486 N   0  0  0  0  0  0  0  0  0  0  0  0
   -1.9678   -1.2688    0.2605 P   0  0  0  0  0  4  0  0  0  0  0  0
   -1.3052   -2.6853   -0.7707 C   0  0  0  0  0  0  0  0  0  0  0  0
   -3.6846   -1.5172    0.2229 C   0  0  0  0  0  0  0  0  0  0  0  0
   -1.4553   -1.9906    1.8906 C   0  0  0  0  0  0  0  0  0  0  0  0
   -2.7134    1.8047   -0.3083 P   0  0  0  0  0  4  0  0  0  0  0  0
   -2.7243    3.4491    0.6245 C   0  0  0  0  0  0  0  0  0  0  0  0
   -4.3534    1.1985    0.0850 C   0  0  0  0  0  0  0  0  0  0  0  0
   -3.0740    2.6702   -1.9295 C   0  0  0  0  0  0  0  0  0  0  0  0
   -1.0640    1.8894    2.0586 H   0  0  0  0  0  0  0  0  0  0  0  0
   -0.8583    0.3704    2.3813 H   0  0  0  0  0  0  0  0  0  0  0  0
   -2.4217    0.8483    2.2830 H   0  0  0  0  0  0  0  0  0  0  0  0
    0.5945    1.9462   -1.4640 H   0  0  0  0  0  0  0  0  0  0  0  0
    0.3381    2.6118    0.1885 H   0  0  0  0  0  0  0  0  0  0  0  0
   -0.6351    2.9272   -1.1737 H   0  0  0  0  0  0  0  0  0  0  0  0
   -2.6151   -0.2988   -2.3355 H   0  0  0  0  0  0  0  0  0  0  0  0
   -0.9403   -0.5881   -2.4118 H   0  0  0  0  0  0  0  0  0  0  0  0
   -1.4909    0.8542   -2.7390 H   0  0  0  0  0  0  0  0  0  0  0  0
    3.5871   -1.9721    2.1980 H   0  0  0  0  0  0  0  0  0  0  0  0
    2.8873   -0.5407    2.9358 H   0  0  0  0  0  0  0  0  0  0  0  0
    4.2103    0.9803    1.5656 H   0  0  0  0  0  0  0  0  0  0  0  0
    5.1537    0.0861    2.7647 H   0  0  0  0  0  0  0  0  0  0  0  0
    6.4202    0.0054    0.7910 H   0  0  0  0  0  0  0  0  0  0  0  0
    5.5593   -1.5918    0.7590 H   0  0  0  0  0  0  0  0  0  0  0  0
    5.5635    0.5091   -1.1910 H   0  0  0  0  0  0  0  0  0  0  0  0
    3.9173    0.4725   -0.5728 H   0  0  0  0  0  0  0  0  0  0  0  0
    4.8752   -1.1753   -2.5231 H   0  0  0  0  0  0  0  0  0  0  0  0
    5.2916   -2.2200   -1.1621 H   0  0  0  0  0  0  0  0  0  0  0  0
    2.7555   -1.8438   -2.4731 H   0  0  0  0  0  0  0  0  0  0  0  0
    3.2150   -3.0355   -1.2368 H   0  0  0  0  0  0  0  0  0  0  0  0
   -1.8635   -3.5341   -0.4381 H   0  0  0  0  0  0  0  0  0  0  0  0
   -0.2154   -2.7270   -0.6546 H   0  0  0  0  0  0  0  0  0  0  0  0
   -1.6365   -2.4234   -1.8004 H   0  0  0  0  0  0  0  0  0  0  0  0
   -3.7733   -2.6443    0.4979 H   0  0  0  0  0  0  0  0  0  0  0  0
   -4.1587   -1.5884   -0.7912 H   0  0  0  0  0  0  0  0  0  0  0  0
   -4.3250   -1.1229    1.0248 H   0  0  0  0  0  0  0  0  0  0  0  0
   -1.8686   -1.3548    2.7297 H   0  0  0  0  0  0  0  0  0  0  0  0
   -1.9868   -2.9097    1.9450 H   0  0  0  0  0  0  0  0  0  0  0  0
   -0.3595   -2.0951    1.9386 H   0  0  0  0  0  0  0  0  0  0  0  0
   -2.6424    3.1270    1.7048 H   0  0  0  0  0  0  0  0  0  0  0  0
   -3.7051    3.8634    0.5335 H   0  0  0  0  0  0  0  0  0  0  0  0
   -1.8652    4.0260    0.2921 H   0  0  0  0  0  0  0  0  0  0  0  0
   -4.5149    1.0642    1.1758 H   0  0  0  0  0  0  0  0  0  0  0  0
   -5.0250    2.1159   -0.0739 H   0  0  0  0  0  0  0  0  0  0  0  0
   -4.8127    0.5155   -0.6056 H   0  0  0  0  0  0  0  0  0  0  0  0
   -3.2470    1.8803   -2.7196 H   0  0  0  0  0  0  0  0  0  0  0  0
   -3.9995    3.1900   -1.8414 H   0  0  0  0  0  0  0  0  0  0  0  0
   -2.2975    3.3702   -2.1966 H   0  0  0  0  0  0  0  0  0  0  0  0
  1  2  1  0
  2  3  1  0
  2  4  1  0
  2  5  1  0
  5  6  1  0
  6  7  2  0
  7  8  1  0
  8  9  1  0
  9 10  1  0
 10 11  1  0
 11 12  1  0
 12 13  1  0
 13 14  1  0
 14 15  2  0
  2 16  1  0
 16 17  1  0
 16 18  1  0
 16 19  1  0
  2 20  1  0
 20 21  1  0
 20 22  1  0
 20 23  1  0
 15  5  1  0
 14  7  1  0
  1 24  1  0
  1 25  1  0
  1 26  1  0
  3 27  1  0
  3 28  1  0
  3 29  1  0
  4 30  1  0
  4 31  1  0
  4 32  1  0
  8 33  1  0
  8 34  1  0
  9 35  1  0
  9 36  1  0
 10 37  1  0
 10 38  1  0
 11 39  1  0
 11 40  1  0
 12 41  1  0
 12 42  1  0
 13 43  1  0
 13 44  1  0
 17 45  1  0
 17 46  1  0
 17 47  1  0
 18 48  1  0
 18 49  1  0
 18 50  1  0
 19 51  1  0
 19 52  1  0
 19 53  1  0
 21 54  1  0
 21 55  1  0
 21 56  1  0
 22 57  1  0
 22 58  1  0
 22 59  1  0
 23 60  1  0
 23 61  1  0
 23 62  1  0
M  RAD  2  16   2  20   2
M  END
