
     RDKit          3D

  0  0  0  0  0  0  0  0  0  0999 V3000
M  V30 BEGIN CTAB
M  V30 COUNTS 53 60 0 0 0
M  V30 BEGIN ATOM
M  V30 1 C 3.152149 2.784416 -2.523130 0
M  V30 2 C 2.268615 1.975463 -1.798440 0
M  V30 3 N 1.526080 1.267739 -1.171105 0
M  V30 4 Fe 0.272198 0.032270 -0.068894 0 CHG=3 VAL=6
M  V30 5 N 2.075560 -0.960251 0.237617 0
M  V30 6 C 3.129834 -1.517558 0.408352 0
M  V30 7 C 4.359353 -2.140370 0.599676 0
M  V30 8 C -1.349697 0.138599 -1.382680 0 RAD=2 VAL=3
M  V30 9 N -1.373808 -0.385577 -2.668260 0
M  V30 10 C -0.852324 -1.695935 -3.074881 0
M  V30 11 N -0.703129 -2.322837 -1.776748 0
M  V30 12 C -0.356790 -3.677268 -1.401438 0
M  V30 13 C -0.665370 -3.862918 -0.102546 0
M  V30 14 N -1.217414 -2.607216 0.359322 0
M  V30 15 C -1.998735 -2.257112 1.529404 0
M  V30 16 N -0.997797 -1.449578 2.202176 0
M  V30 17 C -0.373462 -1.828460 3.455708 0
M  V30 18 C 0.276983 -0.764373 3.955139 0
M  V30 19 N 0.068913 0.309092 3.013053 0
M  V30 20 C 0.363754 1.735652 3.216843 0
M  V30 21 N -0.121039 2.266775 1.979863 0
M  V30 22 C -0.053764 3.595348 1.474031 0
M  V30 23 C -0.931113 3.749975 0.465169 0
M  V30 24 N -1.568335 2.454124 0.344787 0
M  V30 25 C -2.766251 1.877724 -0.232769 0
M  V30 26 N -2.185055 1.156560 -1.351021 0
M  V30 27 C -2.471288 1.481885 -2.739676 0
M  V30 28 C -1.983673 0.552268 -3.550014 0
M  V30 29 C -0.793993 1.579878 0.958926 0 RAD=2 VAL=3
M  V30 30 C -0.458977 -0.290386 1.887381 0 RAD=2 VAL=3
M  V30 31 C -0.875817 -1.721182 -0.535132 0 RAD=2 VAL=3
M  V30 32 H 4.020433 3.157662 -1.927407 0
M  V30 33 H 3.641984 2.210842 -3.376466 0
M  V30 34 H 2.563085 3.595323 -2.987580 0
M  V30 35 H 5.042450 -1.540703 1.288387 0
M  V30 36 H 4.955335 -2.276110 -0.355412 0
M  V30 37 H 4.189938 -3.099730 1.119805 0
M  V30 38 H -1.574587 -2.225552 -3.731761 0
M  V30 39 H 0.121480 -1.541384 -3.581041 0
M  V30 40 H 0.087287 -4.464760 -2.036613 0
M  V30 41 H -0.522606 -4.789500 0.478728 0
M  V30 42 H -2.363374 -3.118524 2.078206 0
M  V30 43 H -2.836332 -1.586078 1.205856 0
M  V30 44 H -0.341455 -2.768773 4.030026 0
M  V30 45 H 0.850532 -0.707556 4.883670 0
M  V30 46 H 1.447005 1.903414 3.324880 0
M  V30 47 H -0.184700 2.048402 4.104983 0
M  V30 48 H 0.564764 4.463478 1.760917 0
M  V30 49 H -1.213853 4.584602 -0.198986 0
M  V30 50 H -3.264642 1.175037 0.486353 0
M  V30 51 H -3.521023 2.616973 -0.489378 0
M  V30 52 H -3.009153 2.351811 -3.158009 0
M  V30 53 H -2.048175 0.534379 -4.629870 0
M  V30 END ATOM
M  V30 BEGIN BOND
M  V30 1 1 1 2
M  V30 2 3 2 3
M  V30 3 9 3 4
M  V30 4 9 5 4
M  V30 5 3 5 6
M  V30 6 1 6 7
M  V30 7 1 4 8
M  V30 8 1 8 9
M  V30 9 1 9 10
M  V30 10 1 10 11
M  V30 11 1 11 12
M  V30 12 2 12 13
M  V30 13 1 13 14
M  V30 14 1 14 15
M  V30 15 1 15 16
M  V30 16 1 16 17
M  V30 17 2 17 18
M  V30 18 1 18 19
M  V30 19 1 19 20
M  V30 20 1 20 21
M  V30 21 1 21 22
M  V30 22 2 22 23
M  V30 23 1 23 24
M  V30 24 1 24 25
M  V30 25 1 25 26
M  V30 26 1 26 27
M  V30 27 2 27 28
M  V30 28 1 24 29
M  V30 29 1 19 30
M  V30 30 1 14 31
M  V30 31 1 29 4
M  V30 32 1 30 4
M  V30 33 1 31 4
M  V30 34 1 26 8
M  V30 35 1 28 9
M  V30 36 1 31 11
M  V30 37 1 30 16
M  V30 38 1 29 21
M  V30 39 1 1 32
M  V30 40 1 1 33
M  V30 41 1 1 34
M  V30 42 1 7 35
M  V30 43 1 7 36
M  V30 44 1 7 37
M  V30 45 1 10 38
M  V30 46 1 10 39
M  V30 47 1 12 40
M  V30 48 1 13 41
M  V30 49 1 15 42
M  V30 50 1 15 43
M  V30 51 1 17 44
M  V30 52 1 18 45
M  V30 53 1 20 46
M  V30 54 1 20 47
M  V30 55 1 22 48
M  V30 56 1 23 49
M  V30 57 1 25 50
M  V30 58 1 25 51
M  V30 59 1 27 52
M  V30 60 1 28 53
M  V30 END BOND
M  V30 END CTAB
M  END
