
 OpenBabel09252516203D

 26 26  0  0  0  0  0  0  0  0999 V2000
    1.0252   -0.1478   -0.0878 C   0  0  0  0  0  0  0  0  0  0  0  0
    0.4112   -1.5036    0.2479 C   0  0  0  0  0  0  0  0  0  0  0  0
    1.0635   -2.1760    1.4498 C   0  0  0  0  0  0  0  0  0  0  0  0
   -1.0263   -1.4540    0.3911 O   0  0  0  0  0  0  0  0  0  0  0  0
   -1.5781   -0.6478    1.3270 C   0  0  0  0  0  0  0  0  0  0  0  0
   -0.9991    0.1085    2.0878 O   0  0  0  0  0  0  0  0  0  0  0  0
   -3.0562   -0.7682    1.2802 C   0  0  0  0  0  0  0  0  0  0  0  0
   -3.8254    0.3342    1.6799 C   0  0  0  0  0  0  0  0  0  0  0  0
   -5.2214    0.2598    1.6738 C   0  0  0  0  0  0  0  0  0  0  0  0
   -5.8471   -0.9307    1.2787 C   0  0  0  0  0  0  0  0  0  0  0  0
   -5.0855   -2.0404    0.8845 C   0  0  0  0  0  0  0  0  0  0  0  0
   -3.6890   -1.9555    0.8839 C   0  0  0  0  0  0  0  0  0  0  0  0
   -7.3135   -1.0189    1.2850 N   0  0  0  0  0  0  0  0  0  0  0  0
   -7.9505   -0.0006    1.5891 O   0  0  0  0  0  0  0  0  0  0  0  0
   -7.8257   -2.1068    0.9859 O   0  0  0  0  0  0  0  0  0  0  0  0
    1.0104    0.5353    0.7666 H   0  0  0  0  0  0  0  0  0  0  0  0
    0.4714    0.3363   -0.8987 H   0  0  0  0  0  0  0  0  0  0  0  0
    2.0697   -0.2624   -0.3955 H   0  0  0  0  0  0  0  0  0  0  0  0
    0.5788   -2.1528   -0.6199 H   0  0  0  0  0  0  0  0  0  0  0  0
    0.9441   -1.5845    2.3624 H   0  0  0  0  0  0  0  0  0  0  0  0
    0.5978   -3.1493    1.6387 H   0  0  0  0  0  0  0  0  0  0  0  0
    2.1339   -2.3288    1.2798 H   0  0  0  0  0  0  0  0  0  0  0  0
   -3.3365    1.2552    1.9956 H   0  0  0  0  0  0  0  0  0  0  0  0
   -5.7994    1.1289    1.9827 H   0  0  0  0  0  0  0  0  0  0  0  0
   -5.5596   -2.9727    0.5823 H   0  0  0  0  0  0  0  0  0  0  0  0
   -3.1030   -2.8234    0.5878 H   0  0  0  0  0  0  0  0  0  0  0  0
  1  2  1  0  0  0  0
  1 16  1  0  0  0  0
  1 17  1  0  0  0  0
  1 18  1  0  0  0  0
  2  3  1  0  0  0  0
  2  4  1  0  0  0  0
  2 19  1  0  0  0  0
  3 20  1  0  0  0  0
  3 21  1  0  0  0  0
  3 22  1  0  0  0  0
  4  5  1  0  0  0  0
  5  6  2  0  0  0  0
  5  7  1  0  0  0  0
  7  8  1  0  0  0  0
  7 12  2  0  0  0  0
  8  9  2  0  0  0  0
  8 23  1  0  0  0  0
  9 10  1  0  0  0  0
  9 24  1  0  0  0  0
 10 11  2  0  0  0  0
 10 13  1  0  0  0  0
 11 12  1  0  0  0  0
 11 25  1  0  0  0  0
 12 26  1  0  0  0  0
 13 14  2  0  0  0  0
 13 15  2  0  0  0  0
M  END
$$$$
