
  --CCDC--092525    3D                              

 39 44  0  0  0  0  0  0  0  0999 V2000
   -0.0823    0.3003   -0.6238 C      0
    1.7577   -0.0000   -0.6214 Si     0
    2.1292   -1.4534    0.4856 C      0
    2.3033   -0.4090   -2.3566 C      0
    2.6627    1.5325   -0.0029 C      0
    3.6717    2.0318   -0.7682 C      0
    5.2061    2.7911   -1.9318 Cr     0
    5.6794    0.7760   -1.9518 C      0
    5.9367   -0.3340   -1.9634 O      0
    5.4937    1.6433   -0.2334 C      0
    5.6506    1.0101    0.7007 O      0
    6.1832    4.5811   -2.1654 C      0
    6.4313    3.9431   -1.0621 C      0
    5.8202    4.3760   -2.5678 C      0
    4.7725    3.7504   -3.6925 C      0
    4.1722    2.6115   -3.5057 C      0
    5.1399    3.9753   -3.3044 C      0
    2.2901    2.3847    1.6357 Si     0
    2.2669    1.1358    3.0198 C      0
    0.6275    3.2244    1.5564 C      0
    3.5940    3.6657    2.0024 C      0
   -0.3358    1.1363   -1.2723 H      0
   -0.4369    0.5296    0.3789 H      0
   -0.6161   -0.5785   -0.9794 H      0
    3.1989   -1.6493    0.5188 H      0
    1.6313   -2.3507    0.1241 H      0
    1.7880   -1.2620    1.5008 H      0
    1.7869   -1.2930   -2.7250 H      0
    3.3733   -0.6035   -2.3888 H      0
    2.0882    0.4156   -3.0330 H      0
    3.2680    0.7993    3.2700 H      0
    1.6650    0.2698    2.7525 H      0
    1.8401    1.5774    3.9178 H      0
   -0.1606    2.5015    1.3566 H      0
    0.6102    3.9719    0.7660 H      0
    0.4010    3.7212    2.4976 H      0
    4.5780    3.2063    2.0690 H      0
    3.3888    4.1656    2.9467 H      0
    3.6245    4.4202    1.2191 H      0
  1  2  1
  2  3  1
  2  4  1
  2  5  1
  5  6  2
  6  7  2
  7  8  1
  8  9  3
  7 10  1
 10 11  3
  7 12  1
 12 13  4
  7 13  1
 13 14  4
  7 14  1
 14 15  4
  7 15  1
 15 16  4
  7 16  1
 16 17  4
  7 17  1
 12 17  4
  5 18  1
 18 19  1
 18 20  1
 18 21  1
  1 22  1
  1 23  1
  1 24  1
  3 25  1
  3 26  1
  3 27  1
  4 28  1
  4 29  1
  4 30  1
 19 31  1
 19 32  1
 19 33  1
 20 34  1
 20 35  1
 20 36  1
 21 37  1
 21 38  1
 21 39  1
M  END
$$$$
