
 OpenBabel09252517043D

 35 38  0  0  1  0  0  0  0  0999 V2000
    2.7746    0.1561    0.9421 H   0  0  0  0  0  0  0  0  0  0  0  0
    2.7530   -0.0822   -0.1158 C   0  0  0  0  0  3  0  0  0  0  0  0
    2.1790   -1.3499   -0.5514 C   0  0  0  0  0  3  0  0  0  0  0  0
    2.0567   -2.1265    0.1913 H   0  0  0  0  0  0  0  0  0  0  0  0
    1.5790   -1.4468   -1.8952 C   0  0  0  0  0  3  0  0  0  0  0  0
    0.2135   -1.7574   -1.9526 N   0  0  0  0  0  0  0  0  0  0  0  0
   -0.6845   -0.6711   -2.2642 C   0  0  0  0  0  0  0  0  0  0  0  0
   -0.5918    0.1641   -3.1485 O   0  0  0  0  0  0  0  0  0  0  0  0
   -1.6740   -0.5698   -1.1433 C   0  0  2  0  0  0  0  0  0  0  0  0
   -0.7773   -0.7285   -0.5081 H   0  0  0  0  0  0  0  0  0  0  0  0
   -2.0628    0.2667    0.0576 C   0  0  0  0  0  0  0  0  0  0  0  0
   -2.7953    1.0440   -0.1868 H   0  0  0  0  0  0  0  0  0  0  0  0
   -1.2157    0.7603    0.5574 H   0  0  0  0  0  0  0  0  0  0  0  0
   -2.6505   -0.9266    0.8849 C   0  0  2  0  0  0  0  0  0  0  0  0
   -3.2408   -0.3322    2.5957 Br  0  0  0  0  0  0  0  0  0  0  0  0
   -1.6354   -2.0263    0.9658 O   0  0  0  0  0  0  0  0  0  0  0  0
   -1.6712   -2.7510   -0.3188 C   0  0  2  0  0  0  0  0  0  0  0  0
   -2.2470   -4.4073   -0.0094 Cl  0  0  0  0  0  0  0  0  0  0  0  0
   -0.3075   -2.9132   -1.1229 C   0  0  0  0  0  0  0  0  0  0  0  0
   -0.4637   -3.6850   -1.8909 H   0  0  0  0  0  0  0  0  0  0  0  0
    0.4668   -3.2976   -0.4550 H   0  0  0  0  0  0  0  0  0  0  0  0
   -2.5981   -1.8361   -1.0916 C   0  0  1  0  0  0  0  0  0  0  0  0
   -2.9327   -2.2022   -2.0653 H   0  0  0  0  0  0  0  0  0  0  0  0
   -3.6897   -1.3863   -0.1233 C   0  0  1  0  0  0  0  0  0  0  0  0
   -4.2338   -0.5301   -0.5466 H   0  0  0  0  0  0  0  0  0  0  0  0
   -5.1959   -2.7066    0.4431 I   0  0  0  0  0  0  0  0  0  0  0  0
    2.1341   -0.5496   -2.9130 C   0  0  0  0  0  3  0  0  0  0  0  0
    1.9142   -0.7417   -3.9580 H   0  0  0  0  0  0  0  0  0  0  0  0
    2.7543    0.7152   -2.5132 C   0  0  0  0  0  3  0  0  0  0  0  0
    2.9893    1.8016   -3.5108 C   0  0  0  0  0  0  0  0  0  0  0  0
    4.3117    2.0976   -3.6154 F   0  0  0  0  0  0  0  0  0  0  0  0
    2.5649    1.4851   -4.7609 F   0  0  0  0  0  0  0  0  0  0  0  0
    2.3625    2.9554   -3.1611 F   0  0  0  0  0  0  0  0  0  0  0  0
    3.0274    0.9583   -1.0943 C   0  0  0  0  0  3  0  0  0  0  0  0
    3.2209    1.9700   -0.7514 H   0  0  0  0  0  0  0  0  0  0  0  0
  1  2  1  0  0  0  0
  2  3  1  0  0  0  0
  2 34  1  0  0  0  0
  3  4  1  0  0  0  0
  3  5  1  0  0  0  0
  5 27  1  0  0  0  0
  5  6  1  0  0  0  0
  6  7  1  0  0  0  0
  6 19  1  0  0  0  0
  7  9  1  0  0  0  0
  7  8  2  0  0  0  0
  9 11  1  0  0  0  0
  9 22  1  0  0  0  0
  9 10  1  6  0  0  0
 11 14  1  0  0  0  0
 11 12  1  0  0  0  0
 11 13  1  0  0  0  0
 14 16  1  0  0  0  0
 14 24  1  0  0  0  0
 14 15  1  1  0  0  0
 16 17  1  0  0  0  0
 17 19  1  0  0  0  0
 17 22  1  0  0  0  0
 17 18  1  1  0  0  0
 19 20  1  0  0  0  0
 19 21  1  0  0  0  0
 22 24  1  0  0  0  0
 22 23  1  6  0  0  0
 24 26  1  0  0  0  0
 24 25  1  6  0  0  0
 27 28  1  0  0  0  0
 27 29  1  0  0  0  0
 29 30  1  0  0  0  0
 29 34  1  0  0  0  0
 30 31  1  0  0  0  0
 30 32  1  0  0  0  0
 30 33  1  0  0  0  0
 34 35  1  0  0  0  0
M  END
$$$$
