
 OpenBabel09252516533D

 87103  0  0  1  0  0  0  0  0999 V2000
    1.0137    0.0762    0.0633 H   0  0  0  0  0  0  0  0  0  0  0  0
    2.0837    0.0762    0.0633 C   0  0  0  0  0  3  0  0  0  0  0  0
    2.5960   -1.3067   -0.3459 C   0  0  0  0  0  3  0  0  0  0  0  0
    2.2068   -2.0441    0.3248 H   0  0  0  0  0  0  0  0  0  0  0  0
    2.1657   -1.5989   -1.6771 C   0  0  0  0  0  3  0  0  0  0  0  0
    2.5060   -2.5806   -1.9324 H   0  0  0  0  0  0  0  0  0  0  0  0
    2.6532   -0.6849   -2.6611 C   0  0  0  0  0  3  0  0  0  0  0  0
    4.4831   -0.6891   -2.6445 P   0  3  0  0  0  0  0  0  0  0  0  0
    5.0926   -2.3730   -3.0211 C   0  0  0  0  0  3  0  0  0  0  0  0
    4.0099   -2.6634   -1.9792 C   0  0  0  0  0  3  0  0  0  0  0  0
    3.9798   -1.8675   -1.2646 H   0  0  0  0  0  0  0  0  0  0  0  0
    2.7410   -2.7693   -2.6283 C   0  0  0  0  0  3  0  0  0  0  0  0
    1.9945   -2.9403   -1.8810 H   0  0  0  0  0  0  0  0  0  0  0  0
    2.6640   -3.8237   -3.5893 C   0  0  0  0  0  3  0  0  0  0  0  0
    2.8695   -4.7584   -3.1106 H   0  0  0  0  0  0  0  0  0  0  0  0
    3.6923   -3.5803   -4.6964 C   0  0  0  0  0  3  0  0  0  0  0  0
    3.6653   -4.3906   -5.3947 H   0  0  0  0  0  0  0  0  0  0  0  0
    5.0887   -3.4867   -4.0734 C   0  0  0  0  0  3  0  0  0  0  0  0
    5.3379   -4.4185   -3.6103 H   0  0  0  0  0  0  0  0  0  0  0  0
    5.3460    0.9295   -4.3871 Ru  0  0  0  0  0  0  0  0  0  0  0  0
    6.6737    2.0838   -4.1931 H   0  0  0  0  0  0  0  0  0  0  0  0
    8.5852   -0.6812   -0.9938 Ru  0  0  0  0  0  0  0  0  0  0  0  0
    6.9656    0.1241   -2.6904 Cl  0  0  0  0  0  2  0  0  0  0  0  0
    8.2549   -1.2355    1.4164 C   0  0  2  0  0  0  0  0  0  0  0  0
    8.5699   -1.8773    2.7578 C   0  0  0  0  0  0  0  0  0  0  0  0
    8.0778   -1.3341    3.5373 H   0  0  0  0  0  0  0  0  0  0  0  0
    8.2266   -2.8907    2.7576 H   0  0  0  0  0  0  0  0  0  0  0  0
    9.6270   -1.8588    2.9225 H   0  0  0  0  0  0  0  0  0  0  0  0
    8.9240   -0.2624    0.4406 C   0  0  2  0  0  0  0  0  0  0  0  0
    8.4121    1.1461    0.6944 C   0  0  0  0  0  0  0  0  0  0  0  0
    7.3520    1.1715    0.5513 H   0  0  0  0  0  0  0  0  0  0  0  0
    8.6434    1.4341    1.6987 H   0  0  0  0  0  0  0  0  0  0  0  0
    8.8805    1.8242    0.0120 H   0  0  0  0  0  0  0  0  0  0  0  0
    6.4975    0.6765   -0.9407 C   0  0  2  0  0  0  0  0  0  0  0  0
    6.8429    1.1489    0.4622 C   0  0  0  0  0  0  0  0  0  0  0  0
    6.4216    0.4755    1.1791 H   0  0  0  0  0  0  0  0  0  0  0  0
    7.9063    1.1740    0.5784 H   0  0  0  0  0  0  0  0  0  0  0  0
    6.4440    2.1297    0.6166 H   0  0  0  0  0  0  0  0  0  0  0  0
    7.0642   -0.7167   -1.1600 C   0  0  2  0  0  0  0  0  0  0  0  0
    6.7186   -1.1887   -2.5630 C   0  0  0  0  0  0  0  0  0  0  0  0
    7.1175   -2.1694   -2.7177 H   0  0  0  0  0  0  0  0  0  0  0  0
    5.6552   -1.2138   -2.6790 H   0  0  0  0  0  0  0  0  0  0  0  0
    7.1397   -0.5151   -3.2798 H   0  0  0  0  0  0  0  0  0  0  0  0
    6.5017   -1.6163   -0.2025 C   0  0  2  0  0  0  0  0  0  0  0  0
    5.3678   -2.6279   -0.1658 C   0  0  0  0  0  0  0  0  0  0  0  0
    4.4418   -2.1334   -0.3727 H   0  0  0  0  0  0  0  0  0  0  0  0
    5.5406   -3.3844   -0.9026 H   0  0  0  0  0  0  0  0  0  0  0  0
    5.3228   -3.0782    0.8039 H   0  0  0  0  0  0  0  0  0  0  0  0
    6.7467   -1.2494    1.1564 C   0  0  1  0  0  0  0  0  0  0  0  0
    5.6998   -1.2127    2.2577 C   0  0  0  0  0  0  0  0  0  0  0  0
    4.9281   -0.5203    1.9933 H   0  0  0  0  0  0  0  0  0  0  0  0
    5.2772   -2.1880    2.3807 H   0  0  0  0  0  0  0  0  0  0  0  0
    6.1572   -0.9041    3.1745 H   0  0  0  0  0  0  0  0  0  0  0  0
    4.8423    3.3552   -4.6819 C   0  0  2  0  0  0  0  0  0  0  0  0
    4.0407    4.5730   -5.1119 C   0  0  0  0  0  0  0  0  0  0  0  0
    4.3531    5.4244   -4.5440 H   0  0  0  0  0  0  0  0  0  0  0  0
    4.2048    4.7588   -6.1528 H   0  0  0  0  0  0  0  0  0  0  0  0
    2.9997    4.3931   -4.9415 H   0  0  0  0  0  0  0  0  0  0  0  0
    4.6599    2.1467   -3.7584 C   0  0  2  0  0  0  0  0  0  0  0  0
    5.2853    2.4412   -2.4046 C   0  0  0  0  0  0  0  0  0  0  0  0
    6.3294    2.6391   -2.5295 H   0  0  0  0  0  0  0  0  0  0  0  0
    4.8098    3.2956   -1.9704 H   0  0  0  0  0  0  0  0  0  0  0  0
    5.1570    1.5960   -1.7611 H   0  0  0  0  0  0  0  0  0  0  0  0
    7.5058    1.5363   -3.3047 C   0  0  2  0  0  0  0  0  0  0  0  0
    6.8315    2.7176   -2.6263 C   0  0  0  0  0  0  0  0  0  0  0  0
    6.9059    3.5801   -3.2551 H   0  0  0  0  0  0  0  0  0  0  0  0
    5.8003    2.4893   -2.4545 H   0  0  0  0  0  0  0  0  0  0  0  0
    7.3135    2.9149   -1.6916 H   0  0  0  0  0  0  0  0  0  0  0  0
    6.8210    1.2559   -4.6324 C   0  0  2  0  0  0  0  0  0  0  0  0
    7.4956    0.0746   -5.3105 C   0  0  0  0  0  0  0  0  0  0  0  0
    7.0136   -0.1231   -6.2451 H   0  0  0  0  0  0  0  0  0  0  0  0
    8.5267    0.3031   -5.4823 H   0  0  0  0  0  0  0  0  0  0  0  0
    7.4213   -0.7878   -4.6814 H   0  0  0  0  0  0  0  0  0  0  0  0
    6.9201    2.4079   -5.4725 C   0  0  2  0  0  0  0  0  0  0  0  0
    7.8169    2.8784   -6.6060 C   0  0  0  0  0  0  0  0  0  0  0  0
    8.8276    2.9377   -6.2599 H   0  0  0  0  0  0  0  0  0  0  0  0
    7.7583    2.1847   -7.4185 H   0  0  0  0  0  0  0  0  0  0  0  0
    7.4961    3.8438   -6.9373 H   0  0  0  0  0  0  0  0  0  0  0  0
    6.3369    3.5874   -4.9158 C   0  0  2  0  0  0  0  0  0  0  0  0
    6.9947    4.9571   -4.8770 C   0  0  0  0  0  0  0  0  0  0  0  0
    7.9087    4.8983   -4.3237 H   0  0  0  0  0  0  0  0  0  0  0  0
    7.2023    5.2814   -5.8753 H   0  0  0  0  0  0  0  0  0  0  0  0
    6.3362    5.6558   -4.4047 H   0  0  0  0  0  0  0  0  0  0  0  0
    2.1432    0.7233   -2.3456 C   0  0  0  0  0  3  0  0  0  0  0  0
    2.5415    1.4161   -3.0571 H   0  0  0  0  0  0  0  0  0  0  0  0
    2.5966    1.1179   -0.9366 C   0  0  0  0  0  3  0  0  0  0  0  0
    3.6654    1.1537   -0.9006 H   0  0  0  0  0  0  0  0  0  0  0  0
  1  2  1  0  0  0  0
  2  3  1  0  0  0  0
  2 86  1  0  0  0  0
  3  4  1  0  0  0  0
  3  5  1  0  0  0  0
  5  6  1  0  0  0  0
  5  7  1  0  0  0  0
  7  8  1  0  0  0  0
  7 84  1  0  0  0  0
  8  9  1  0  0  0  0
  8 20  1  0  0  0  0
  8 22  1  0  0  0  0
  9 10  1  0  0  0  0
  9 18  1  0  0  0  0
 10 11  1  0  0  0  0
 10 12  1  0  0  0  0
 12 13  1  0  0  0  0
 12 14  1  0  0  0  0
 14 15  1  0  0  0  0
 14 16  1  0  0  0  0
 16 17  1  0  0  0  0
 16 18  1  0  0  0  0
 18 19  1  0  0  0  0
 20 21  1  0  0  0  0
 20 22  1  0  0  0  0
 20 23  1  0  0  0  0
 20 54  1  0  0  0  0
 20 59  1  0  0  0  0
 20 64  1  0  0  0  0
 20 69  1  0  0  0  0
 20 74  1  0  0  0  0
 20 79  1  0  0  0  0
 21 22  1  0  0  0  0
 22 23  1  0  0  0  0
 22 24  1  0  0  0  0
 22 29  1  0  0  0  0
 22 34  1  0  0  0  0
 22 39  1  0  0  0  0
 22 44  1  0  0  0  0
 22 49  1  0  0  0  0
 24 25  1  6  0  0  0
 24 29  1  0  0  0  0
 24 49  1  0  0  0  0
 25 26  1  0  0  0  0
 25 27  1  0  0  0  0
 25 28  1  0  0  0  0
 29 30  1  6  0  0  0
 29 34  1  0  0  0  0
 30 31  1  0  0  0  0
 30 32  1  0  0  0  0
 30 33  1  0  0  0  0
 34 35  1  1  0  0  0
 34 39  1  0  0  0  0
 35 36  1  0  0  0  0
 35 37  1  0  0  0  0
 35 38  1  0  0  0  0
 39 40  1  1  0  0  0
 39 44  1  0  0  0  0
 40 41  1  0  0  0  0
 40 42  1  0  0  0  0
 40 43  1  0  0  0  0
 44 45  1  1  0  0  0
 44 49  1  0  0  0  0
 45 46  1  0  0  0  0
 45 47  1  0  0  0  0
 45 48  1  0  0  0  0
 49 50  1  6  0  0  0
 50 51  1  0  0  0  0
 50 52  1  0  0  0  0
 50 53  1  0  0  0  0
 54 55  1  1  0  0  0
 54 59  1  0  0  0  0
 54 79  1  0  0  0  0
 55 56  1  0  0  0  0
 55 57  1  0  0  0  0
 55 58  1  0  0  0  0
 59 60  1  6  0  0  0
 59 64  1  0  0  0  0
 60 61  1  0  0  0  0
 60 62  1  0  0  0  0
 60 63  1  0  0  0  0
 64 65  1  6  0  0  0
 64 69  1  0  0  0  0
 65 66  1  0  0  0  0
 65 67  1  0  0  0  0
 65 68  1  0  0  0  0
 69 70  1  1  0  0  0
 69 74  1  0  0  0  0
 70 71  1  0  0  0  0
 70 72  1  0  0  0  0
 70 73  1  0  0  0  0
 74 75  1  1  0  0  0
 74 79  1  0  0  0  0
 75 76  1  0  0  0  0
 75 77  1  0  0  0  0
 75 78  1  0  0  0  0
 79 80  1  1  0  0  0
 80 81  1  0  0  0  0
 80 82  1  0  0  0  0
 80 83  1  0  0  0  0
 84 85  1  0  0  0  0
 84 86  1  0  0  0  0
 86 87  1  0  0  0  0
M  CHG  1   8   1
M  END
$$$$
