
     RDKit          3D

 42 41  0  0  0  0  0  0  0  0999 V2000
    0.0080    0.1175   -2.1728 C   0  0  0  0  0  0  0  0  0  0  0  0
    0.0168   -0.0252   -0.2306 Pt  0  0  0  0  0  6  0  0  0  0  0  0
    0.1312    1.7693   -0.1143 C   0  0  0  0  0  0  0  0  0  0  0  0
    0.0829   -1.8187   -0.4102 C   0  0  0  0  0  0  0  0  0  0  0  0
   -0.1113   -0.2647    1.3576 N   0  0  0  0  0  0  0  0  0  0  0  0
   -0.1568   -0.2471    2.5157 N   0  0  0  0  0  4  0  0  0  0  0  0
   -0.1158    0.4710    3.5388 N   0  0  0  0  0  2  0  0  0  0  0  0
    2.0957   -0.1155    0.3321 P   0  0  0  0  0  4  0  0  0  0  0  0
    2.7463    1.1541    1.4031 C   0  0  0  0  0  0  0  0  0  0  0  0
    2.7584   -1.6604    0.8888 C   0  0  0  0  0  0  0  0  0  0  0  0
    2.9982    0.1891   -1.2296 C   0  0  0  0  0  0  0  0  0  0  0  0
   -2.0422    0.0071    0.0781 P   0  0  0  0  0  4  0  0  0  0  0  0
   -2.7769    1.2678    1.1705 C   0  0  0  0  0  0  0  0  0  0  0  0
   -2.8384    0.5772   -1.4703 C   0  0  0  0  0  0  0  0  0  0  0  0
   -2.8860   -1.5251    0.4113 C   0  0  0  0  0  0  0  0  0  0  0  0
   -0.5561    0.9843   -2.6309 H   0  0  0  0  0  0  0  0  0  0  0  0
   -0.6020   -0.6150   -2.7492 H   0  0  0  0  0  0  0  0  0  0  0  0
    0.9713    0.1424   -2.6478 H   0  0  0  0  0  0  0  0  0  0  0  0
    0.9770    2.3805   -0.5868 H   0  0  0  0  0  0  0  0  0  0  0  0
   -0.6562    2.4486   -0.6014 H   0  0  0  0  0  0  0  0  0  0  0  0
    0.1120    2.3540    0.8422 H   0  0  0  0  0  0  0  0  0  0  0  0
    0.8810   -2.3682   -1.0285 H   0  0  0  0  0  0  0  0  0  0  0  0
    0.0556   -2.5900    0.3869 H   0  0  0  0  0  0  0  0  0  0  0  0
   -0.7554   -2.3727   -0.9874 H   0  0  0  0  0  0  0  0  0  0  0  0
    3.5219    1.7921    0.9655 H   0  0  0  0  0  0  0  0  0  0  0  0
    1.8848    1.8465    1.6637 H   0  0  0  0  0  0  0  0  0  0  0  0
    3.0072    0.7024    2.3567 H   0  0  0  0  0  0  0  0  0  0  0  0
    3.5346   -2.1337    0.2649 H   0  0  0  0  0  0  0  0  0  0  0  0
    3.1656   -1.5882    1.9153 H   0  0  0  0  0  0  0  0  0  0  0  0
    1.9753   -2.4701    1.0055 H   0  0  0  0  0  0  0  0  0  0  0  0
    4.0392    0.1545   -0.9495 H   0  0  0  0  0  0  0  0  0  0  0  0
    2.7004   -0.6470   -1.9182 H   0  0  0  0  0  0  0  0  0  0  0  0
    2.7501    1.1871   -1.6120 H   0  0  0  0  0  0  0  0  0  0  0  0
   -2.4358    2.2580    0.8165 H   0  0  0  0  0  0  0  0  0  0  0  0
   -3.8203    1.0515    1.1183 H   0  0  0  0  0  0  0  0  0  0  0  0
   -2.4338    1.1637    2.2140 H   0  0  0  0  0  0  0  0  0  0  0  0
   -2.6123    1.6236   -1.6965 H   0  0  0  0  0  0  0  0  0  0  0  0
   -3.8818    0.4350   -1.3098 H   0  0  0  0  0  0  0  0  0  0  0  0
   -2.5265   -0.0924   -2.3208 H   0  0  0  0  0  0  0  0  0  0  0  0
   -2.7073   -2.2796   -0.3824 H   0  0  0  0  0  0  0  0  0  0  0  0
   -3.9226   -1.2543    0.4319 H   0  0  0  0  0  0  0  0  0  0  0  0
   -2.5757   -2.0092    1.3714 H   0  0  0  0  0  0  0  0  0  0  0  0
  1  2  1  0
  2  3  1  0
  2  4  1  0
  2  5  1  0
  5  6  2  0
  6  7  2  0
  2  8  1  0
  8  9  1  0
  8 10  1  0
  8 11  1  0
  2 12  1  0
 12 13  1  0
 12 14  1  0
 12 15  1  0
  1 16  1  0
  1 17  1  0
  1 18  1  0
  3 19  1  0
  3 20  1  0
  3 21  1  0
  4 22  1  0
  4 23  1  0
  4 24  1  0
  9 25  1  0
  9 26  1  0
  9 27  1  0
 10 28  1  0
 10 29  1  0
 10 30  1  0
 11 31  1  0
 11 32  1  0
 11 33  1  0
 13 34  1  0
 13 35  1  0
 13 36  1  0
 14 37  1  0
 14 38  1  0
 14 39  1  0
 15 40  1  0
 15 41  1  0
 15 42  1  0
M  CHG  2   6   1   7  -1
M  RAD  2   8   2  12   2
M  END
