
  --CCDC--092525    3D                              

 48 56  0  0  0  0  0  0  0  0999 V2000
    4.2063   -1.5953    0.2868 H      0
    3.4758   -1.0008   -0.2519 C      0
    2.1477   -1.0360    0.1514 C      0
    1.8411   -1.6649    0.9806 H      0
    1.2275   -0.2742   -0.5203 C      0
    1.6279    0.5701   -1.5573 C      0
    0.5852    1.3850   -2.0443 C      0
    0.9578    2.0071   -3.2629 C      0
    0.2742    2.5801   -3.8706 H      0
    2.2488    1.9766   -3.7746 C      0
    2.4574    2.5176   -4.6917 H      0
    3.2613    1.3056   -3.1711 C      0
    4.2686    1.3336   -3.5733 H      0
    2.9597    0.5486   -2.0277 C      0
    3.8858   -0.2519   -1.3183 C      0
    4.9259   -0.2751   -1.6261 H      0
   -1.3233    1.4755   -1.0264 Ir     0
   -1.3776    0.8278   -3.3518 Cl     0
   -1.0330   -0.5483   -1.4689 C      0
   -1.8842   -1.1993   -1.2345 H      0
   -0.4776   -0.7355   -2.3962 H      0
   -0.2583   -0.1803   -0.3797 C      0
   -0.6591   -0.2766    0.6275 H      0
   -1.2108    3.2839   -0.2568 C      0
    0.2986    3.1641   -0.4752 C      0
    0.6368    3.5093   -1.4455 H      0
    0.7236    2.2488   -0.0792 H      0
    0.7300    3.9134    0.1852 H      0
   -1.5928    2.3182    0.8336 C      0
   -0.7981    1.5952    1.9360 C      0
   -0.7219    2.2255    2.8196 H      0
    0.2123    1.3614    1.6092 H      0
   -1.2864    0.6700    2.2332 H      0
   -2.7608    1.5459    0.3967 C      0
   -3.3280    0.1706    0.7531 C      0
   -4.2091   -0.0475    0.1532 H      0
   -3.6182    0.1364    1.8012 H      0
   -2.6004   -0.6181    0.5808 H      0
   -3.2578    2.1158   -0.8803 C      0
   -4.1130    1.5212   -2.0156 C      0
   -3.7130    0.5723   -2.3624 H      0
   -4.2185    2.1933   -2.8638 H      0
   -5.1167    1.3236   -1.6451 H      0
   -2.3115    3.1503   -1.3268 C      0
   -1.8458    2.9475   -2.7557 C      0
   -1.5860    1.9318   -2.9280 H      0
   -2.6375    3.2110   -3.4537 H      0
   -1.0102    3.6126   -2.9499 H      0
  1  2  1
  2  3  4
  3  4  1
  3  5  4
  5  6  4
  6  7  4
  7  8  4
  8  9  1
  8 10  4
 10 11  1
 10 12  4
 12 13  1
 12 14  4
  6 14  4
 14 15  4
  2 15  4
 15 16  1
  7 17  1
 17 18  1
 17 19  1
 19 20  1
 19 21  1
 19 22  2
  5 22  1
 17 22  1
 22 23  1
 17 24  1
 24 25  1
 25 26  1
 25 27  1
 25 28  1
 24 29  4
 17 29  1
 29 30  1
 30 31  1
 30 32  1
 30 33  1
 29 34  4
 17 34  1
 34 35  1
 35 36  1
 35 37  1
 35 38  1
 34 39  4
 17 39  1
 39 40  1
 40 41  1
 40 42  1
 40 43  1
 39 44  4
 24 44  4
 17 44  1
 44 45  1
 45 46  1
 45 47  1
 45 48  1
M  END
$$$$
