
     RDKit          3D

  0  0  0  0  0  0  0  0  0  0999 V3000
M  V30 BEGIN CTAB
M  V30 COUNTS 47 52 0 0 0
M  V30 BEGIN ATOM
M  V30 1 C 1.553975 0.534236 1.102254 0
M  V30 2 N 0.462479 0.489065 1.785967 0
M  V30 3 C -0.405402 0.797967 2.854907 0
M  V30 4 C -1.326276 -0.394092 3.223353 0
M  V30 5 C -2.452655 -0.576108 2.260669 0
M  V30 6 N -2.031970 -0.971552 0.952878 0
M  V30 7 C -2.088718 -1.242326 -0.305626 0
M  V30 8 C -1.659105 -1.662424 -1.627337 0
M  V30 9 C -3.172708 -0.189162 -0.542906 0
M  V30 10 C -4.372345 -0.299593 -1.284113 0
M  V30 11 C -5.246852 0.793659 -1.411167 0
M  V30 12 C -4.881286 1.966955 -0.785120 0
M  V30 13 C -3.736054 2.172818 -0.045481 0
M  V30 14 C -2.847189 1.098958 0.094613 0
M  V30 15 O -1.704335 1.389499 0.843046 0
M  V30 16 Cu -0.528790 -0.455892 0.757524 0 CFG=2 VAL=4
M  V30 17 O 0.041631 -0.444889 -0.627023 0
M  V30 18 C 1.327309 -0.534185 -1.048661 0
M  V30 19 C 1.861323 -1.072859 -2.235102 0
M  V30 20 C 3.231592 -1.025559 -2.396218 0
M  V30 21 C 4.012740 -0.466019 -1.413746 0
M  V30 22 C 5.378159 -0.433416 -1.591782 0
M  V30 23 C 6.271375 0.086461 -0.698655 0
M  V30 24 C 5.774643 0.623484 0.477963 0
M  V30 25 C 4.414689 0.605526 0.684523 0
M  V30 26 C 3.546163 0.073767 -0.238120 0
M  V30 27 C 2.179169 0.011958 -0.107560 0
M  V30 28 H 2.176186 1.215210 1.586338 0
M  V30 29 H -0.014837 1.143730 3.825619 0
M  V30 30 H -1.103761 1.603758 2.562826 0
M  V30 31 H -0.667654 -1.288839 3.154090 0
M  V30 32 H -1.751579 -0.189517 4.188155 0
M  V30 33 H -3.197704 0.238919 2.304208 0
M  V30 34 H -3.009015 -1.462099 2.675201 0
M  V30 35 H -0.985981 -2.555478 -1.651846 0
M  V30 36 H -2.596547 -2.103462 -2.091243 0
M  V30 37 H -1.285740 -0.979756 -2.356177 0
M  V30 38 H -4.441509 -1.309330 -1.718563 0
M  V30 39 H -6.103602 0.570864 -1.990397 0
M  V30 40 H -5.572673 2.785126 -0.899865 0
M  V30 41 H -3.455995 3.087970 0.439024 0
M  V30 42 H 1.173541 -1.490170 -2.953977 0
M  V30 43 H 3.568225 -1.445223 -3.305119 0
M  V30 44 H 5.803532 -0.839681 -2.489887 0
M  V30 45 H 7.347918 0.088371 -0.887467 0
M  V30 46 H 6.468706 1.037285 1.192241 0
M  V30 47 H 4.046926 1.016044 1.595086 0
M  V30 END ATOM
M  V30 BEGIN BOND
M  V30 1 2 1 2
M  V30 2 1 2 3
M  V30 3 1 3 4
M  V30 4 1 4 5
M  V30 5 1 5 6
M  V30 6 2 6 7
M  V30 7 1 7 8
M  V30 8 1 7 9
M  V30 9 2 9 10
M  V30 10 1 10 11
M  V30 11 2 11 12
M  V30 12 1 12 13
M  V30 13 2 13 14
M  V30 14 1 14 15
M  V30 15 1 15 16
M  V30 16 1 16 17
M  V30 17 1 17 18
M  V30 18 2 18 19
M  V30 19 1 19 20
M  V30 20 2 20 21
M  V30 21 1 21 22
M  V30 22 2 22 23
M  V30 23 1 23 24
M  V30 24 2 24 25
M  V30 25 1 25 26
M  V30 26 2 26 27
M  V30 27 1 27 1
M  V30 28 9 2 16
M  V30 29 1 27 18
M  V30 30 9 6 16
M  V30 31 1 26 21
M  V30 32 1 14 9
M  V30 33 1 1 28
M  V30 34 1 3 29
M  V30 35 1 3 30
M  V30 36 1 4 31
M  V30 37 1 4 32
M  V30 38 1 5 33
M  V30 39 1 5 34
M  V30 40 1 8 35
M  V30 41 1 8 36
M  V30 42 1 8 37
M  V30 43 1 10 38
M  V30 44 1 11 39
M  V30 45 1 12 40
M  V30 46 1 13 41
M  V30 47 1 19 42
M  V30 48 1 20 43
M  V30 49 1 22 44
M  V30 50 1 23 45
M  V30 51 1 24 46
M  V30 52 1 25 47
M  V30 END BOND
M  V30 END CTAB
M  END
