
  --CCDC--092525    3D                              

 87103  0  0  0  0  0  0  0  0999 V2000
    4.5984   -0.0603   -7.9185 H      0
    4.3283   -0.2166   -6.8731 C      0
    3.4456    0.5783   -6.2073 C      0
    2.9319    1.3250   -6.7698 H      0
    3.1760    0.4587   -4.8550 C      0
    2.3797    1.0712   -4.4333 H      0
    3.8493   -0.4866   -4.0690 C      0
    3.8415   -0.6681   -2.2213 P      3
    5.6373   -1.2373   -1.8798 C      0
    6.5025   -1.5836   -2.9047 C      0
    6.4425   -1.1299   -3.8910 H      0
    7.5536   -2.4480   -2.6723 C      0
    7.9725   -2.9838   -3.4856 H      0
    8.1756   -2.5445   -1.4734 C      0
    9.0555   -3.1591   -1.2667 H      0
    7.6647   -1.6079   -0.6438 C      0
    8.2856   -1.2018    0.1190 H      0
    6.3141   -1.3637   -0.6536 C      0
    5.8323   -1.3324    0.3187 H      0
    3.7415    1.6932   -1.3668 Ru     0
    3.2271    0.8736    0.1064 H      0
    1.9414   -0.0238   -0.5823 Ru     0
    1.3650    2.0541   -1.7072 Cl     0
    0.0136    0.0355   -0.0104 C      0
    0.0651    1.2781   -0.8070 C      0
   -0.6646    1.2286   -1.6142 H      0
   -0.1594    2.1236   -0.1595 H      0
    1.0879    1.3390   -1.1986 H      0
    0.9712    0.0371    1.2224 C      0
    1.7011    1.2828    1.7342 C      0
    2.2086    1.8500    0.9311 H      0
    2.4090    1.1344    2.5734 H      0
    1.0126    1.9665    2.1315 H      0
    2.1711   -0.8638    1.0323 C      0
    3.7432   -0.2888    1.4092 C      0
    4.3023   -0.4458    0.5050 H      0
    4.2199   -0.9260    2.1237 H      0
    4.0631    0.7173    1.7960 H      0
    2.1340   -1.6646   -0.6046 C      0
    3.5592   -1.9925   -1.2201 C      0
    3.5672   -2.8254   -1.9270 H      0
    4.0855   -2.4379   -0.3730 H      0
    4.1973   -1.1651   -1.4514 H      0
    1.0468   -1.0890   -1.8967 C      0
    1.3606   -1.7221   -3.4290 C      0
    0.6197   -2.4631   -3.7464 H      0
    2.2976   -2.2525   -3.3002 H      0
    1.4920   -1.0566   -4.2972 H      0
    0.2005   -1.2253   -0.9027 C      0
    0.5902   -2.7170   -0.4624 C      0
    1.2808   -3.2354   -1.1240 H      0
   -0.3189   -3.2883   -0.5719 H      0
    0.8192   -2.8553    0.6030 H      0
    3.8389    3.4765   -0.7063 C      0
    2.9776    4.2806    0.2011 C      0
    3.4459    4.3310    1.1685 H      0
    1.9964    3.8326    0.2955 H      0
    2.8556    5.2930   -0.1855 H      0
    4.9677    2.5174   -0.2916 C      0
    5.4424    1.9111   -1.6090 C      0
    5.2578    0.8237   -1.7170 H      0
    6.1685    1.5755   -0.9827 H      0
    6.3136    2.4105   -2.0853 H      0
    5.6074    1.5453   -1.1819 C      0
    4.9404    2.0367   -2.5555 C      0
    5.3887    1.3390   -3.2736 H      0
    5.3801    2.8756   -3.2030 H      0
    3.9284    1.5112   -2.7711 H      0
    5.1479    1.4852   -2.6487 C      0
    4.2082    2.8119   -2.7776 C      0
    3.7708    2.7172   -3.8160 H      0
    4.7604    3.8280   -2.8049 H      0
    3.3373    2.6360   -2.0762 H      0
    4.0148    2.3733   -3.1810 C      0
    3.3649    3.8350   -2.5227 C      0
    2.3864    3.8661   -2.0476 H      0
    3.2070    4.4579   -3.3718 H      0
    4.0402    4.5660   -1.9545 H      0
    3.4484    3.3602   -2.2665 C      0
    2.1229    4.2022   -2.7227 C      0
    1.6342    3.7229   -3.5920 H      0
    2.2785    5.2729   -2.9882 H      0
    1.3556    4.3400   -1.9534 H      0
    4.4972   -1.4568   -4.8069 C      0
    4.7780   -2.4047   -4.3440 H      0
    4.7652   -1.2826   -6.1482 C      0
    5.3219   -2.0321   -6.6622 H      0
  1  2  1
  2  3  4
  3  4  1
  3  5  4
  5  6  1
  5  7  4
  7  8  1
  8  9  1
  9 10  4
 10 11  1
 10 12  4
 12 13  1
 12 14  4
 14 15  1
 14 16  4
 16 17  1
 16 18  4
  9 18  4
 18 19  1
  8 20  1
 20 21  1
 21 22  1
  8 22  1
 20 22  1
 22 23  1
 20 23  1
 22 24  1
 24 25  1
 25 26  1
 25 27  1
 25 28  1
 24 29  4
 22 29  1
 29 30  1
 30 31  1
 30 32  1
 30 33  1
 29 34  4
 22 34  1
 34 35  1
 35 36  1
 35 37  1
 35 38  1
 34 39  4
 22 39  1
 39 40  1
 40 41  1
 40 42  1
 40 43  1
 39 44  4
 22 44  1
 44 45  1
 45 46  1
 45 47  1
 45 48  1
 44 49  4
 24 49  4
 22 49  1
 49 50  1
 50 51  1
 50 52  1
 50 53  1
 20 54  1
 54 55  1
 55 56  1
 55 57  1
 55 58  1
 54 59  4
 20 59  1
 59 60  1
 60 61  1
 60 62  1
 60 63  1
 59 64  4
 20 64  1
 64 65  1
 65 66  1
 65 67  1
 65 68  1
 64 69  4
 20 69  1
 69 70  1
 70 71  1
 70 72  1
 70 73  1
 69 74  4
 20 74  1
 74 75  1
 75 76  1
 75 77  1
 75 78  1
 74 79  4
 54 79  4
 20 79  1
 79 80  1
 80 81  1
 80 82  1
 80 83  1
  7 84  4
 84 85  1
 84 86  4
  2 86  4
 86 87  1
M  CHG  1   8   1
M  END
$$$$
