
 OpenBabel09252513083D

 43 45  0  0  0  0  0  0  0  0999 V2000
    1.0717   -0.0150   -0.0681 C   0  0  0  0  0  0  0  0  0  0  0  0
    0.5650   -0.9116    1.0499 C   0  0  0  0  0  0  0  0  0  0  0  0
    1.0550   -0.4087    2.3414 N   0  0  0  0  0  4  0  0  0  0  0  0
    0.3650    1.5203    2.6375 Pt  0  0  0  0  0  0  0  0  0  0  0  0
    0.6184    2.3648    3.8662 N   0  0  0  0  0  4  0  0  0  0  0  0
    0.6111    4.0440    3.1267 C   0  0  0  0  0  0  0  0  0  0  0  0
   -0.3703    5.0373    3.7271 C   0  0  0  0  0  0  0  0  0  0  0  0
    0.3075    3.5610    1.4400 C   0  0  0  0  0  0  0  0  0  0  0  0
    0.1802    4.2555    0.3623 C   0  0  0  0  0  0  0  0  0  0  0  0
   -0.0531    3.6273   -0.8691 C   0  0  0  0  0  0  0  0  0  0  0  0
   -0.1580    2.2270   -0.9011 C   0  0  0  0  0  0  0  0  0  0  0  0
   -0.0247    1.5178    0.2199 C   0  0  0  0  0  0  0  0  0  0  0  0
    0.2193    2.1623    1.4673 C   0  0  0  0  0  0  0  0  0  0  0  0
   -1.4255    1.0425    3.5598 N   0  0  0  0  0  0  0  0  0  0  0  0
   -2.2417    1.9990    3.9473 C   0  0  0  0  0  0  0  0  0  0  0  0
   -3.0300    2.9229    4.3215 O   0  0  0  0  0  0  0  0  0  0  0  0
   -0.9550   -0.9116    1.0499 C   0  0  0  0  0  0  0  0  0  0  0  0
   -1.6787   -2.1341    1.1262 C   0  0  0  0  0  0  0  0  0  0  0  0
   -3.0510   -2.1422    0.8274 C   0  0  0  0  0  0  0  0  0  0  0  0
   -3.7073   -1.0218    0.7522 C   0  0  0  0  0  0  0  0  0  0  0  0
   -3.0492    0.1942    0.9795 C   0  0  0  0  0  0  0  0  0  0  0  0
   -1.6337    0.2348    0.9782 C   0  0  0  0  0  0  0  0  0  0  0  0
    0.7150    0.9821    0.0850 H   0  0  0  0  0  0  0  0  0  0  0  0
    0.7150   -0.3810   -1.0082 H   0  0  0  0  0  0  0  0  0  0  0  0
    2.1417   -0.0150   -0.0681 H   0  0  0  0  0  0  0  0  0  0  0  0
    0.9217   -1.9087    0.8968 H   0  0  0  0  0  0  0  0  0  0  0  0
    0.7150   -1.0104    3.0916 H   0  0  0  0  0  0  0  0  0  0  0  0
    2.0750   -0.4087    2.3414 H   0  0  0  0  0  0  0  0  0  0  0  0
   -0.0550    2.2300    4.6204 H   0  0  0  0  0  0  0  0  0  0  0  0
    1.5179    2.1459    4.2944 H   0  0  0  0  0  0  0  0  0  0  0  0
    1.5500    4.5437    3.2436 H   0  0  0  0  0  0  0  0  0  0  0  0
   -0.1187    5.2119    4.7524 H   0  0  0  0  0  0  0  0  0  0  0  0
   -0.3211    5.9589    3.1858 H   0  0  0  0  0  0  0  0  0  0  0  0
   -1.3620    4.6402    3.6659 H   0  0  0  0  0  0  0  0  0  0  0  0
    0.2532    5.3221    0.4075 H   0  0  0  0  0  0  0  0  0  0  0  0
   -0.1493    4.2026   -1.7661 H   0  0  0  0  0  0  0  0  0  0  0  0
   -0.3455    1.7276   -1.8286 H   0  0  0  0  0  0  0  0  0  0  0  0
   -0.1020    0.4512    0.1826 H   0  0  0  0  0  0  0  0  0  0  0  0
   -1.1822   -3.0388    1.4087 H   0  0  0  0  0  0  0  0  0  0  0  0
   -3.5568   -3.0704    0.6616 H   0  0  0  0  0  0  0  0  0  0  0  0
   -4.7509   -1.0286    0.5165 H   0  0  0  0  0  0  0  0  0  0  0  0
   -3.6130    1.0870    1.1530 H   0  0  0  0  0  0  0  0  0  0  0  0
   -1.1167    1.1699    0.9207 H   0  0  0  0  0  0  0  0  0  0  0  0
  1  2  1  0  0  0  0
  1 23  1  0  0  0  0
  1 24  1  0  0  0  0
  1 25  1  0  0  0  0
  2  3  1  0  0  0  0
  2 17  1  0  0  0  0
  2 26  1  0  0  0  0
  3  4  1  0  0  0  0
  3 27  1  0  0  0  0
  3 28  1  0  0  0  0
  4  5  1  0  0  0  0
  4 13  1  0  0  0  0
  4 14  1  0  0  0  0
  5  6  1  0  0  0  0
  5 29  1  0  0  0  0
  5 30  1  0  0  0  0
  6  7  1  0  0  0  0
  6  8  1  0  0  0  0
  6 31  1  0  0  0  0
  7 32  1  0  0  0  0
  7 33  1  0  0  0  0
  7 34  1  0  0  0  0
  8  9  1  0  0  0  0
  8 13  2  0  0  0  0
  9 10  2  0  0  0  0
  9 35  1  0  0  0  0
 10 11  1  0  0  0  0
 10 36  1  0  0  0  0
 11 12  2  0  0  0  0
 11 37  1  0  0  0  0
 12 13  1  0  0  0  0
 12 38  1  0  0  0  0
 14 15  2  0  0  0  0
 15 16  2  0  0  0  0
 17 18  1  0  0  0  0
 17 22  2  0  0  0  0
 18 19  2  0  0  0  0
 18 39  1  0  0  0  0
 19 20  1  0  0  0  0
 19 40  1  0  0  0  0
 20 21  2  0  0  0  0
 20 41  1  0  0  0  0
 21 22  1  0  0  0  0
 21 42  1  0  0  0  0
 22 43  1  0  0  0  0
M  END
$$$$
