
 OpenBabel09252519403D

 73 77  0  0  0  0  0  0  0  0999 V2000
    0.9504    0.0652    0.0573 Cl  0  0  0  0  0  0  0  0  0  0  0  0
    3.3804    0.0652    0.0573 Ir  0  0  0  0  0  0  0  0  0  0  0  0
    3.3804    1.5150    0.2483 N   0  0  0  0  0  0  0  0  0  0  0  0
    2.7815    2.0946    1.3468 C   0  0  0  0  0  0  0  0  0  0  0  0
    2.1651    1.3187    2.3235 C   0  0  0  0  0  0  0  0  0  0  0  0
    2.1444   -0.1837    2.2030 C   0  0  0  0  0  0  0  0  0  0  0  0
    3.3804   -0.6355    1.4179 P   0  0  0  0  0  4  0  0  0  0  0  0
    3.3421   -2.4502    1.1848 C   0  0  0  0  0  0  0  0  0  0  0  0
    4.5694   -2.8864    0.4012 C   0  0  0  0  0  0  0  0  0  0  0  0
    3.3374   -3.1354    2.5416 C   0  0  0  0  0  0  0  0  0  0  0  0
    4.8949   -0.1867    2.3419 C   0  0  0  0  0  0  0  0  0  0  0  0
    4.9430    1.3203    2.5345 C   0  0  0  0  0  0  0  0  0  0  0  0
    4.8819   -0.8707    3.6992 C   0  0  0  0  0  0  0  0  0  0  0  0
    1.5693    1.9212    3.4110 C   0  0  0  0  0  0  0  0  0  0  0  0
    1.5780    3.3028    3.5459 C   0  0  0  0  0  0  0  0  0  0  0  0
    2.1795    4.0858    2.6044 C   0  0  0  0  0  0  0  0  0  0  0  0
    2.7943    3.4971    1.4887 C   0  0  0  0  0  0  0  0  0  0  0  0
    3.3887    4.2762    0.5651 C   0  0  0  0  0  0  0  0  0  0  0  0
    3.9670    3.7599   -0.4809 C   0  0  0  0  0  0  0  0  0  0  0  0
    4.6312    4.6645   -1.5059 C   0  0  0  0  0  0  0  0  0  0  0  0
    4.6215    6.0135   -1.3304 C   0  0  0  0  0  0  0  0  0  0  0  0
    3.1669    0.7474   -2.4428 C   0  0  0  0  0  0  0  0  0  0  0  0
    3.3008    2.0276   -2.0025 C   0  0  0  0  0  0  0  0  0  0  0  0
    6.4704   -0.9852    1.4260 C   0  0  0  0  0  0  0  0  0  0  0  0
    5.8604    0.0652    0.0573 P   0  0  0  0  0  4  0  0  0  0  0  0
    6.4704   -0.5949   -1.5368 C   0  0  0  0  0  0  0  0  0  0  0  0
    5.9637    0.2776   -2.6736 C   0  0  0  0  0  0  0  0  0  0  0  0
    7.9904   -0.5949   -1.5368 C   0  0  0  0  0  0  0  0  0  0  0  0
    6.4704    1.7758    0.2827 C   0  0  0  0  0  0  0  0  0  0  0  0
    5.9637    2.6483   -0.8542 C   0  0  0  0  0  0  0  0  0  0  0  0
    5.9637    2.3241    1.6067 C   0  0  0  0  0  0  0  0  0  0  0  0
    3.9776    2.3061   -0.6702 C   0  0  0  0  0  3  0  0  0  0  0  0
    3.3804   -1.6400   -0.1674 H   0  0  0  0  0  0  0  0  0  0  0  0
    3.3804    0.8528   -1.4718 H   0  0  0  0  0  0  0  0  0  0  0  0
    1.2569   -0.4944    1.6924 H   0  0  0  0  0  0  0  0  0  0  0  0
    2.1585   -0.6226    3.1788 H   0  0  0  0  0  0  0  0  0  0  0  0
    2.4591   -2.7219    0.6450 H   0  0  0  0  0  0  0  0  0  0  0  0
    5.4524   -2.6147    0.9410 H   0  0  0  0  0  0  0  0  0  0  0  0
    4.5470   -3.9474    0.2649 H   0  0  0  0  0  0  0  0  0  0  0  0
    4.5727   -2.4041   -0.5539 H   0  0  0  0  0  0  0  0  0  0  0  0
    2.4735   -2.8283    3.0933 H   0  0  0  0  0  0  0  0  0  0  0  0
    3.3151   -4.1964    2.4053 H   0  0  0  0  0  0  0  0  0  0  0  0
    4.2204   -2.8637    3.0815 H   0  0  0  0  0  0  0  0  0  0  0  0
    5.7558   -0.5035    1.7910 H   0  0  0  0  0  0  0  0  0  0  0  0
    4.0821    1.6371    3.0853 H   0  0  0  0  0  0  0  0  0  0  0  0
    5.8285    1.5828    3.0747 H   0  0  0  0  0  0  0  0  0  0  0  0
    4.9522    1.8019    1.5790 H   0  0  0  0  0  0  0  0  0  0  0  0
    4.8480   -1.9316    3.5636 H   0  0  0  0  0  0  0  0  0  0  0  0
    5.7674   -0.6083    4.2394 H   0  0  0  0  0  0  0  0  0  0  0  0
    4.0210   -0.5539    4.2500 H   0  0  0  0  0  0  0  0  0  0  0  0
    1.0959    1.3186    4.1577 H   0  0  0  0  0  0  0  0  0  0  0  0
    1.1097    3.7567    4.3942 H   0  0  0  0  0  0  0  0  0  0  0  0
    2.1824    5.1499    2.7168 H   0  0  0  0  0  0  0  0  0  0  0  0
    3.3856    5.3385    0.6931 H   0  0  0  0  0  0  0  0  0  0  0  0
    5.1066    4.2403   -2.3656 H   0  0  0  0  0  0  0  0  0  0  0  0
    4.1462    6.4377   -0.4707 H   0  0  0  0  0  0  0  0  0  0  0  0
    2.6905    0.5513   -3.3806 H   0  0  0  0  0  0  0  0  0  0  0  0
    7.5404   -0.9852    1.4260 H   0  0  0  0  0  0  0  0  0  0  0  0
    6.1137   -0.5992    2.3580 H   0  0  0  0  0  0  0  0  0  0  0  0
    6.1137   -1.5950   -1.6686 H   0  0  0  0  0  0  0  0  0  0  0  0
    6.3204    1.2778   -2.5419 H   0  0  0  0  0  0  0  0  0  0  0  0
    6.3204   -0.1083   -3.6057 H   0  0  0  0  0  0  0  0  0  0  0  0
    4.8937    0.2776   -2.6736 H   0  0  0  0  0  0  0  0  0  0  0  0
    8.3471   -1.2091   -0.7365 H   0  0  0  0  0  0  0  0  0  0  0  0
    8.3471   -0.9808   -2.4688 H   0  0  0  0  0  0  0  0  0  0  0  0
    8.3471    0.4053   -1.4050 H   0  0  0  0  0  0  0  0  0  0  0  0
    7.5404    1.7758    0.2827 H   0  0  0  0  0  0  0  0  0  0  0  0
    4.8937    2.6483   -0.8542 H   0  0  0  0  0  0  0  0  0  0  0  0
    6.3204    3.6485   -0.7224 H   0  0  0  0  0  0  0  0  0  0  0  0
    6.3204    2.2624   -1.7862 H   0  0  0  0  0  0  0  0  0  0  0  0
    6.3204    1.7099    2.4070 H   0  0  0  0  0  0  0  0  0  0  0  0
    6.3204    3.3243    1.7385 H   0  0  0  0  0  0  0  0  0  0  0  0
    4.8937    2.3241    1.6067 H   0  0  0  0  0  0  0  0  0  0  0  0
  1  2  1  0  0  0  0
  2  3  1  0  0  0  0
  2  7  1  0  0  0  0
  2 25  1  0  0  0  0
  2 33  1  0  0  0  0
  2 34  1  0  0  0  0
  3  4  1  0  0  0  0
  3 32  1  0  0  0  0
  4  5  1  0  0  0  0
  4 17  2  0  0  0  0
  5  6  1  0  0  0  0
  5 14  2  0  0  0  0
  6  7  1  0  0  0  0
  6 35  1  0  0  0  0
  6 36  1  0  0  0  0
  7  8  1  0  0  0  0
  7 11  1  0  0  0  0
  8  9  1  0  0  0  0
  8 10  1  0  0  0  0
  8 37  1  0  0  0  0
  9 38  1  0  0  0  0
  9 39  1  0  0  0  0
  9 40  1  0  0  0  0
 10 41  1  0  0  0  0
 10 42  1  0  0  0  0
 10 43  1  0  0  0  0
 11 12  1  0  0  0  0
 11 13  1  0  0  0  0
 11 44  1  0  0  0  0
 12 45  1  0  0  0  0
 12 46  1  0  0  0  0
 12 47  1  0  0  0  0
 13 48  1  0  0  0  0
 13 49  1  0  0  0  0
 13 50  1  0  0  0  0
 14 15  1  0  0  0  0
 14 51  1  0  0  0  0
 15 16  2  0  0  0  0
 15 52  1  0  0  0  0
 16 17  1  0  0  0  0
 16 53  1  0  0  0  0
 17 18  1  0  0  0  0
 18 19  2  0  0  0  0
 18 54  1  0  0  0  0
 19 20  1  0  0  0  0
 19 32  1  0  0  0  0
 20 21  2  0  0  0  0
 20 55  1  0  0  0  0
 21 22  1  0  0  0  0
 21 56  1  0  0  0  0
 22 23  2  0  0  0  0
 22 57  1  0  0  0  0
 23 24  1  0  0  0  0
 23 32  1  0  0  0  0
 24 25  1  0  0  0  0
 24 58  1  0  0  0  0
 24 59  1  0  0  0  0
 25 26  1  0  0  0  0
 25 29  1  0  0  0  0
 26 27  1  0  0  0  0
 26 28  1  0  0  0  0
 26 60  1  0  0  0  0
 27 61  1  0  0  0  0
 27 62  1  0  0  0  0
 27 63  1  0  0  0  0
 28 64  1  0  0  0  0
 28 65  1  0  0  0  0
 28 66  1  0  0  0  0
 29 30  1  0  0  0  0
 29 31  1  0  0  0  0
 29 67  1  0  0  0  0
 30 68  1  0  0  0  0
 30 69  1  0  0  0  0
 30 70  1  0  0  0  0
 31 71  1  0  0  0  0
 31 72  1  0  0  0  0
 31 73  1  0  0  0  0
M  END
$$$$
