
     RDKit          3D

 29 30  0  0  0  0  0  0  0  0999 V2000
   -1.7598    4.2342    0.5255 Cl  0  0  0  0  0  0  0  0  0  0  0  0
    0.7175    2.9575    0.2988 Au  0  0  0  0  0  3  0  0  0  0  0  0
    0.0293    1.1156    0.1837 C   0  0  0  0  0  0  0  0  0  0  0  0
    1.1531    0.2444    0.0572 N   0  0  0  0  0  0  0  0  0  0  0  0
    2.4276    0.1996    0.7851 C   0  0  0  0  0  0  0  0  0  0  0  0
    3.4089    0.3832   -0.3796 C   0  0  0  0  0  0  0  0  0  0  0  0
    2.8392   -0.6021   -1.3774 C   0  0  0  0  0  0  0  0  0  0  0  0
    1.4408   -0.8942   -0.8210 C   0  0  0  0  0  0  0  0  0  0  0  0
   -1.1287    0.3324    0.1779 N   0  0  0  0  0  0  0  0  0  0  0  0
   -1.6051   -0.1557    1.4275 C   0  0  0  0  0  0  0  0  0  0  0  0
   -2.9060   -0.8515    1.1402 C   0  0  0  0  0  0  0  0  0  0  0  0
   -3.3670   -0.3109   -0.1874 C   0  0  0  0  0  0  0  0  0  0  0  0
   -2.0223   -0.1272   -0.8835 C   0  0  0  0  0  0  0  0  0  0  0  0
    2.5862   -0.7967    1.2431 H   0  0  0  0  0  0  0  0  0  0  0  0
    2.5306    1.0441    1.4948 H   0  0  0  0  0  0  0  0  0  0  0  0
    4.4527    0.1642   -0.0824 H   0  0  0  0  0  0  0  0  0  0  0  0
    3.2712    1.3896   -0.7925 H   0  0  0  0  0  0  0  0  0  0  0  0
    2.7877   -0.1268   -2.3891 H   0  0  0  0  0  0  0  0  0  0  0  0
    3.4288   -1.5377   -1.4181 H   0  0  0  0  0  0  0  0  0  0  0  0
    0.7599   -0.9756   -1.6674 H   0  0  0  0  0  0  0  0  0  0  0  0
    1.4887   -1.8110   -0.1755 H   0  0  0  0  0  0  0  0  0  0  0  0
   -0.9159   -0.9133    1.8890 H   0  0  0  0  0  0  0  0  0  0  0  0
   -1.7048    0.6304    2.2064 H   0  0  0  0  0  0  0  0  0  0  0  0
   -2.7024   -1.9280    0.9767 H   0  0  0  0  0  0  0  0  0  0  0  0
   -3.6553   -0.7150    1.9439 H   0  0  0  0  0  0  0  0  0  0  0  0
   -3.9469   -1.0797   -0.7363 H   0  0  0  0  0  0  0  0  0  0  0  0
   -3.8858    0.6547   -0.0713 H   0  0  0  0  0  0  0  0  0  0  0  0
   -2.0718    0.5921   -1.7292 H   0  0  0  0  0  0  0  0  0  0  0  0
   -1.6504   -1.1166   -1.2203 H   0  0  0  0  0  0  0  0  0  0  0  0
  1  2  1  0
  2  3  2  3
  3  4  1  0
  4  5  1  0
  5  6  1  0
  6  7  1  0
  7  8  1  0
  3  9  1  0
  9 10  1  0
 10 11  1  0
 11 12  1  0
 12 13  1  0
  8  4  1  0
 13  9  1  0
  5 14  1  0
  5 15  1  0
  6 16  1  0
  6 17  1  0
  7 18  1  0
  7 19  1  0
  8 20  1  0
  8 21  1  0
 10 22  1  0
 10 23  1  0
 11 24  1  0
 11 25  1  0
 12 26  1  0
 12 27  1  0
 13 28  1  0
 13 29  1  0
M  END
