
  --CCDC--092525    3D                              

 46 54  0  0  0  0  0  0  0  0999 V2000
    0.5167    0.2740    0.1418 Cl     0
    1.5370    2.4462    0.1224 Ir     0
   -0.2991    2.7338    1.1109 C      0
   -0.4100    3.0672   -0.1830 C      0
   -1.1902    3.4714   -1.3749 C      0
   -2.3317    4.1579   -1.7036 C      0
   -2.7200    4.1439   -3.0395 C      0
   -2.0394    3.4274   -3.9924 C      0
   -0.8896    2.6668   -3.6559 C      0
   -0.1707    1.8018   -4.5073 C      0
    0.8543    1.0635   -3.9905 C      0
    1.2656    1.1792   -2.6666 C      0
    0.6818    2.0953   -1.7938 C      0
   -0.4463    2.7577   -2.3234 C      0
    2.9593    1.9385    1.4100 C      0
    2.8411    0.8756    2.4795 C      0
    2.5506    3.3991    1.5420 C      0
    1.9425    4.0329    2.7738 C      0
    2.6819    4.0659    0.1769 C      0
    2.2416    5.4686   -0.1781 C      0
    3.2099    3.0221   -0.7938 C      0
    3.4437    3.2602   -2.2702 C      0
    3.3802    1.7107   -0.0336 C      0
    3.8152    0.3711   -0.5851 C      0
   -0.8331    2.6148    2.0477 H      0
   -2.9068    4.6905   -0.9533 H      0
   -3.5989    4.7069   -3.3357 H      0
   -2.3973    3.4281   -5.0167 H      0
   -0.4470    1.7036   -5.5519 H      0
    1.3702    0.3621   -4.6378 H      0
    2.0758    0.5500   -2.3282 H      0
    3.5861    0.0964    2.3328 H      0
    2.9899    1.3050    3.4681 H      0
    1.8569    0.4123    2.4558 H      0
    0.9793    4.4837    2.5451 H      0
    2.5935    4.8115    3.1659 H      0
    1.7936    3.2912    3.5558 H      0
    1.1944    5.4812   -0.4730 H      0
    2.8311    5.8605   -1.0043 H      0
    2.3625    6.1374    0.6716 H      0
    3.7356    2.3379   -2.7682 H      0
    4.2366    3.9900   -2.4194 H      0
    2.5456    3.6384   -2.7534 H      0
    4.4970   -0.1251    0.1025 H      0
    4.3250    0.4931   -1.5385 H      0
    2.9578   -0.2806   -0.7389 H      0
  1  2  1
  2  3  1
  3  4  2
  2  4  1
  4  5  1
  5  6  4
  6  7  4
  7  8  4
  8  9  4
  9 10  4
 10 11  4
 11 12  4
 12 13  4
  2 13  1
 13 14  4
  5 14  4
  9 14  4
  2 15  1
 15 16  1
 15 17  4
  2 17  1
 17 18  1
 17 19  4
  2 19  1
 19 20  1
 19 21  4
  2 21  1
 21 22  1
 21 23  4
  2 23  1
 15 23  4
 23 24  1
  3 25  1
  6 26  1
  7 27  1
  8 28  1
 10 29  1
 11 30  1
 12 31  1
 16 32  1
 16 33  1
 16 34  1
 18 35  1
 18 36  1
 18 37  1
 20 38  1
 20 39  1
 20 40  1
 22 41  1
 22 42  1
 22 43  1
 24 44  1
 24 45  1
 24 46  1
M  END
$$$$
