
  --CCDC--092525    3D                              

111119  0  0  0  0  0  0  0  0999 V2000
   -1.9599   -2.2289   -1.0862 H      0
   -1.9145   -1.1697   -1.3163 C      0
   -0.8074   -0.4650   -1.2189 N      0
    0.1046   -0.2816   -0.1144 C      0
    0.7138   -1.1700    0.1549 H      0
   -0.7321   -0.0437    1.1271 C      0
   -1.3504   -1.0931    1.7998 C      0
   -1.2181   -2.1115    1.4509 H      0
   -2.1309   -0.8663    2.9202 C      0
   -2.5976   -1.7012    3.4329 H      0
   -2.3144    0.4160    3.3863 C      0
   -2.9218    0.5941    4.2675 H      0
   -1.7233    1.4706    2.7258 C      0
   -1.8685    2.4835    3.0864 H      0
   -0.9424    1.2439    1.6041 C      0
   -0.4887    2.0853    1.0910 H      0
    1.1638    0.8233   -0.3925 C      0
    1.4155    1.1643    0.6326 H      0
    2.5401    0.4019   -0.8563 C      0
    3.6454    0.9173   -0.1939 C      0
    3.4973    1.5547    0.6717 H      0
    4.9315    0.6479   -0.6296 C      0
    5.7806    1.0741   -0.1055 H      0
    5.1338   -0.1574   -1.7279 C      0
    6.1408   -0.3633   -2.0754 H      0
    4.0489   -0.6917   -2.3870 C      0
    4.2031   -1.3287   -3.2517 H      0
    2.7628   -0.4104   -1.9565 C      0
    1.9238   -0.8084   -2.5088 H      0
    0.6392    1.8718   -1.2275 N      0
    0.7197    3.1710   -0.9914 C      0
    1.1725    3.5374   -0.0759 H      0
    0.1211    4.1255   -1.9766 C      0
   -0.8635    4.4255   -1.6009 H      0
    0.7135    5.0471   -2.0338 H      0
   -0.0849    3.4174   -3.6308 P      0
   -0.9394    3.8515   -5.1730 C      0
   -1.2278    5.1951   -5.4364 C      0
   -1.0055    5.9582   -4.6973 H      0
   -1.7991    5.5839   -6.6334 C      0
   -2.0439    6.6301   -6.7855 H      0
   -2.0586    4.6729   -7.6411 C      0
   -2.6999    5.1138   -8.9351 C      0
   -2.7927    6.1976   -8.9683 H      0
   -3.6952    4.6872   -9.0385 H      0
   -2.1056    4.7999   -9.7903 H      0
   -1.6923    3.3555   -7.4198 C      0
   -1.8547    2.6232   -8.2036 H      0
   -1.1140    2.9536   -6.2270 C      0
   -0.7792    1.9283   -6.1187 H      0
    1.6107    3.5528   -4.3005 C      0
    2.7324    3.2978   -3.5038 C      0
    2.6232    3.0763   -2.4531 H      0
    4.0135    3.2799   -4.0248 C      0
    4.8483    3.0620   -3.3668 H      0
    4.2561    3.5153   -5.3640 C      0
    5.6476    3.4359   -5.9433 C      0
    6.3871    3.7829   -5.2247 H      0
    5.8924    2.4103   -6.2129 H      0
    5.7288    4.0489   -6.8386 H      0
    3.1679    3.8376   -6.1510 C      0
    3.3243    4.0620   -7.2013 H      0
    1.8825    3.8795   -5.6414 C      0
    1.1055    4.1784   -6.3315 H      0
   -0.7901    1.1203   -2.7072 Fe     0
   -2.1095    0.8054   -4.4432 N      0
   -2.8033    0.5793   -5.3212 C      0
   -3.7235    0.2819   -6.4097 C      0
   -3.1914   -0.1123   -7.2731 H      0
   -4.2555    1.1787   -6.7200 H      0
   -4.4607   -0.4565   -6.0987 H      0
    0.4678   -0.1031   -4.0347 N      0
    1.1206   -0.7379   -4.7235 C      0
    1.9583   -1.5868   -5.5606 C      0
    2.7048   -0.9948   -6.0870 H      0
    1.3564   -2.1103   -6.3013 H      0
    2.4768   -2.3317   -4.9604 H      0
   -2.9593    1.3609   -1.3378 P      0
   -4.7253    1.1581   -1.7202 C      0
   -5.2381    1.1309   -3.0182 C      0
   -4.5930    1.3434   -3.8553 H      0
   -6.5687    0.8453   -3.2594 C      0
   -6.9248    0.7991   -4.2830 H      0
   -7.4550    0.6117   -2.2245 C      0
   -8.8945    0.2595   -2.5086 C      0
   -9.5680    1.0030   -2.0881 H      0
   -9.1461   -0.7082   -2.0799 H      0
   -9.0712    0.2095   -3.5811 H      0
   -6.9707    0.7094   -0.9304 C      0
   -7.6492    0.5525   -0.0983 H      0
   -5.6374    0.9875   -0.6743 C      0
   -5.2917    1.0489    0.3527 H      0
   -3.2336    3.0709   -1.8667 C      0
   -3.2693    4.0069   -0.8326 C      0
   -3.1720    3.6692    0.1939 H      0
   -3.3915    5.3564   -1.0933 C      0
   -3.3745    6.0619   -0.2691 H      0
   -3.5232    5.8225   -2.3879 C      0
   -3.6060    7.3038   -2.6642 C      0
   -3.0784    7.8660   -1.8962 H      0
   -4.6405    7.6396   -2.6781 H      0
   -3.1558    7.5439   -3.6250 H      0
   -3.5409    4.8890   -3.4128 C      0
   -3.6649    5.2323   -4.4343 H      0
   -3.3735    3.5343   -3.1754 C      0
   -3.3431    2.8432   -4.0092 H      0
   -3.0938   -0.3901   -1.8275 C      0
   -3.2047   -0.5125   -2.9084 H      0
   -4.0021   -0.8252   -1.3949 H      0
   -0.9159    4.5185   -3.4067 H      0
   -2.7458    1.3837    0.0425 H      0
  1  2  1
  2  3  2
  3  4  1
  4  5  1
  4  6  1
  6  7  4
  7  8  1
  7  9  4
  9 10  1
  9 11  4
 11 12  1
 11 13  4
 13 14  1
 13 15  4
  6 15  4
 15 16  1
  4 17  1
 17 18  1
 17 19  1
 19 20  4
 20 21  1
 20 22  4
 22 23  1
 22 24  4
 24 25  1
 24 26  4
 26 27  1
 26 28  4
 19 28  4
 28 29  1
 17 30  1
 30 31  2
 31 32  1
 31 33  1
 33 34  1
 33 35  1
 33 36  1
 36 37  1
 37 38  4
 38 39  1
 38 40  4
 40 41  1
 40 42  4
 42 43  1
 43 44  1
 43 45  1
 43 46  1
 42 47  4
 47 48  1
 47 49  4
 37 49  4
 49 50  1
 36 51  1
 51 52  4
 52 53  1
 52 54  4
 54 55  1
 54 56  4
 56 57  1
 57 58  1
 57 59  1
 57 60  1
 56 61  4
 61 62  1
 61 63  4
 51 63  4
 63 64  1
 36 65  1
  3 65  1
 30 65  1
 65 66  1
 66 67  3
 67 68  1
 68 69  1
 68 70  1
 68 71  1
 65 72  1
 72 73  3
 73 74  1
 74 75  1
 74 76  1
 74 77  1
 65 78  1
 78 79  1
 79 80  4
 80 81  1
 80 82  4
 82 83  1
 82 84  4
 84 85  1
 85 86  1
 85 87  1
 85 88  1
 84 89  4
 89 90  1
 89 91  4
 79 91  4
 91 92  1
 78 93  1
 93 94  4
 94 95  1
 94 96  4
 96 97  1
 96 98  4
 98 99  1
 99100  1
 99101  1
 99102  1
 98103  4
103104  1
103105  4
 93105  4
105106  1
 78107  1
  2107  1
107108  1
107109  1
 36110  1
 78111  1
M  END
$$$$
