
  --CCDC--092525    3D                              

 24 29  0  0  0  0  0  0  0  0999 V2000
    1.6574   -1.3443    0.0458 H      0
    1.4052   -0.4139   -0.4588 C      0
    2.1452    0.3348   -0.1845 H      0
    1.4772   -0.5863   -1.5312 H      0
   -0.0132    0.0396   -0.0857 C      0
   -1.1848    0.4475   -0.9322 C      0
   -0.8745    0.4861   -2.0331 H      0
   -2.4525    0.1385   -0.1495 C      0
   -3.3206    0.0332   -0.8875 H      0
   -2.0186   -0.6126    1.1553 C      0
   -2.5160   -1.6274    1.2615 H      0
   -0.4812   -0.6694    1.1436 C      0
   -0.0515   -1.7185    1.2037 H      0
   -1.3278   -1.6990   -0.5304 Mn     0
   -1.6915   -2.2093   -2.7323 C      0
   -1.8725   -2.4632   -3.8281 O      0
   -3.1498   -3.0715   -0.7061 C      0
   -4.0566   -3.7546   -0.7932 O      0
   -0.2177   -3.1395   -1.1447 H      0
   -0.5978   -4.2888   -0.1383 Si     0
   -2.0234   -4.8282    1.2580 Cl     0
   -1.7350   -5.5721   -1.2924 Cl     0
    0.5860   -4.2102    1.5545 Cl     0
    0.4541   -5.3070   -0.4924 H      0
  1  2  1
  2  3  1
  2  4  1
  2  5  1
  5  6  4
  6  7  1
  6  8  4
  8  9  1
  8 10  4
 10 11  1
 10 12  4
  5 12  4
 12 13  1
 12 14  1
  8 14  1
 10 14  1
  6 14  1
  5 14  1
 14 15  1
 15 16  3
 14 17  1
 17 18  3
 14 19  1
 19 20  1
 14 20  1
 20 21  1
 20 22  1
 20 23  1
 20 24  1
M  END
$$$$
