
  --CCDC--092525    3D                              

 73 79  0  0  0  0  0  0  0  0999 V2000
   -1.3905    0.7840    0.9630 H      0
   -1.0437   -0.1671    0.3562 C      0
   -0.6851   -1.2196    1.1901 C      0
   -0.8819   -2.5318    0.8135 C      0
   -1.4314   -2.8151   -0.4136 C      0
   -1.7170   -1.7885   -1.2937 C      0
   -1.4641   -0.4607   -0.9491 C      0
   -1.5563    0.5588   -1.9158 N      0
   -0.9752    1.6716   -1.5176 C      0
   -0.9471    2.9032   -2.4021 C      0
   -1.1681    2.9634   -3.7782 C      0
   -1.1295    4.1828   -4.4364 C      0
   -0.8919    5.3489   -3.7395 C      0
   -0.6928    5.3103   -2.3700 C      0
   -0.7079    4.0861   -1.6998 C      0
   -0.5992    3.8116    0.0793 P      0
    0.6005    5.0772    0.5846 C      0
    1.6788    5.3635   -0.2471 C      0
    2.6669    6.2526    0.1409 C      0
    2.5900    6.8856    1.3606 C      0
    1.5124    6.6457    2.1828 C      0
    0.5182    5.7619    1.7965 C      0
   -2.2086    4.2564    0.7814 C      0
   -3.1884    3.2894    0.9844 C      0
   -4.4399    3.6469    1.4578 C      0
   -4.7363    4.9683    1.7108 C      0
   -3.7867    5.9394    1.4803 C      0
   -2.5328    5.5902    1.0073 C      0
   -0.2578    1.5183    0.2709 Co     0
    0.8398    2.0560    2.2543 P      0
   -0.3107    2.9434    3.3304 C      0
    2.4250    2.9289    2.1445 C      0
    1.2268    0.6050    3.2647 C      0
    1.8316    1.0757   -0.6339 P      0
    1.5596    0.1254   -2.1491 C      0
    2.8466    0.0097    0.4189 C      0
    2.7710    2.5335   -1.1452 C      0
   -0.2887   -1.0270    2.1743 H      0
   -0.6165   -3.3376    1.4900 H      0
   -1.6255   -3.8441   -0.6976 H      0
   -2.1159   -2.0205   -2.2757 H      0
   -1.3677    2.0537   -4.3348 H      0
   -1.2906    4.2205   -5.5087 H      0
   -0.8666    6.2982   -4.2643 H      0
   -0.5278    6.2300   -1.8185 H      0
    1.7426    4.8917   -1.2203 H      0
    3.5046    6.4516   -0.5194 H      0
    3.3694    7.5747    1.6686 H      0
    1.4381    7.1568    3.1370 H      0
   -0.3437    5.6351    2.4397 H      0
   -2.9756    2.2472    0.7731 H      0
   -5.1914    2.8829    1.6280 H      0
   -5.7164    5.2440    2.0859 H      0
   -4.0228    6.9816    1.6678 H      0
   -1.7970    6.3636    0.8136 H      0
   -1.1036    2.2767    3.6627 H      0
    0.1971    3.3276    4.2126 H      0
   -0.7827    3.7681    2.8133 H      0
    2.3344    3.9490    1.8002 H      0
    3.1169    2.4201    1.4804 H      0
    2.8878    2.9707    3.1283 H      0
    0.3462    0.2741    3.8097 H      0
    1.9876    0.8527    4.0020 H      0
    1.5925   -0.2281    2.6726 H      0
    0.9846   -0.7747   -1.9421 H      0
    2.5082   -0.1733   -2.5904 H      0
    1.0167    0.7137   -2.8856 H      0
    2.3636   -0.9547    0.5615 H      0
    3.0156    0.4448    1.3991 H      0
    3.8169   -0.1669   -0.0405 H      0
    2.2130    3.1010   -1.8860 H      0
    2.9984    3.1873   -0.3096 H      0
    3.7138    2.2351   -1.5988 H      0
  1  2  1
  2  3  4
  3  4  4
  4  5  4
  5  6  4
  6  7  4
  2  7  4
  7  8  1
  8  9  2
  9 10  1
 10 11  4
 11 12  4
 12 13  4
 13 14  4
 14 15  4
 10 15  4
 15 16  1
 16 17  1
 17 18  4
 18 19  4
 19 20  4
 20 21  4
 21 22  4
 17 22  4
 16 23  1
 23 24  4
 24 25  4
 25 26  4
 26 27  4
 27 28  4
 23 28  4
 16 29  1
  1 29  1
  2 29  1
  9 29  1
 29 30  1
 30 31  1
 30 32  1
 30 33  1
 29 34  1
 34 35  1
 34 36  1
 34 37  1
  3 38  1
  4 39  1
  5 40  1
  6 41  1
 11 42  1
 12 43  1
 13 44  1
 14 45  1
 18 46  1
 19 47  1
 20 48  1
 21 49  1
 22 50  1
 24 51  1
 25 52  1
 26 53  1
 27 54  1
 28 55  1
 31 56  1
 31 57  1
 31 58  1
 32 59  1
 32 60  1
 32 61  1
 33 62  1
 33 63  1
 33 64  1
 35 65  1
 35 66  1
 35 67  1
 36 68  1
 36 69  1
 36 70  1
 37 71  1
 37 72  1
 37 73  1
M  END
$$$$
