
 OpenBabel09252514073D

 53 57  0  0  0  0  0  0  0  0999 V2000
    1.0831   -0.0517   -0.0205 I   0  0  0  0  0  0  0  0  0  0  0  0
    3.7931   -0.0517   -0.0205 Cu  0  0  0  0  0  0  0  0  0  0  0  0
    4.4866    1.1511   -0.0200 S   0  0  0  0  0  3  0  0  0  0  0  0
    5.7537    1.2005    0.3255 P   0  0  0  0  0  0  0  0  0  0  0  0
    6.5119   -0.0294    0.7336 C   0  0  0  0  0  0  0  0  0  0  0  0
    5.7756   -1.2733    0.3294 P   0  0  0  0  0  0  0  0  0  0  0  0
    4.4755   -1.2352   -0.0210 S   0  0  0  0  0  3  0  0  0  0  0  0
    6.2465   -1.4170   -1.4331 C   0  0  0  0  0  0  0  0  0  0  0  0
    6.9415   -2.5366   -1.8597 C   0  0  0  0  0  0  0  0  0  0  0  0
    7.4870   -2.4120   -3.1593 C   0  0  0  0  0  0  0  0  0  0  0  0
    7.1054   -1.5134   -4.0487 C   0  0  0  0  0  0  0  0  0  0  0  0
    6.3633   -0.4669   -3.5760 C   0  0  0  0  0  0  0  0  0  0  0  0
    5.9043   -0.4541   -2.2810 C   0  0  0  0  0  0  0  0  0  0  0  0
    5.6157    0.3778    1.1021 C   0  0  0  0  0  0  0  0  0  0  0  0
    6.4180    1.4377    0.7126 C   0  0  0  0  0  0  0  0  0  0  0  0
    6.4272    2.5164    1.6282 C   0  0  0  0  0  0  0  0  0  0  0  0
    5.5218    2.7067    2.5706 C   0  0  0  0  0  0  0  0  0  0  0  0
    4.7144    1.6424    2.8620 C   0  0  0  0  0  0  0  0  0  0  0  0
    4.7409    0.5039    2.0931 C   0  0  0  0  0  0  0  0  0  0  0  0
    7.2931    2.1844    0.4307 C   0  0  0  0  0  0  0  0  0  0  0  0
    7.3545    3.2518    1.3113 C   0  0  0  0  0  0  0  0  0  0  0  0
    8.4632    4.1054    1.1010 C   0  0  0  0  0  0  0  0  0  0  0  0
    9.5399    3.7781    0.4099 C   0  0  0  0  0  0  0  0  0  0  0  0
    9.4370    2.6737   -0.3896 C   0  0  0  0  0  0  0  0  0  0  0  0
    8.3287    1.8633   -0.3358 C   0  0  0  0  0  0  0  0  0  0  0  0
    5.2902    0.3921   -1.2495 C   0  0  0  0  0  0  0  0  0  0  0  0
    5.7622    0.8478   -2.4694 C   0  0  0  0  0  0  0  0  0  0  0  0
    5.1936    0.1904   -3.5859 C   0  0  0  0  0  0  0  0  0  0  0  0
    4.5640   -0.9692   -3.5317 C   0  0  0  0  0  0  0  0  0  0  0  0
    4.1839   -1.3972   -2.2900 C   0  0  0  0  0  0  0  0  0  0  0  0
    4.5910   -0.7330   -1.1582 C   0  0  0  0  0  0  0  0  0  0  0  0
    6.6185   -0.0268    1.7983 H   0  0  0  0  0  0  0  0  0  0  0  0
    7.4718   -0.0217    0.2610 H   0  0  0  0  0  0  0  0  0  0  0  0
    7.0556   -3.4160   -1.2609 H   0  0  0  0  0  0  0  0  0  0  0  0
    8.2626   -3.0931   -3.4411 H   0  0  0  0  0  0  0  0  0  0  0  0
    7.3632   -1.5998   -5.0836 H   0  0  0  0  0  0  0  0  0  0  0  0
    6.1368    0.3540   -4.2239 H   0  0  0  0  0  0  0  0  0  0  0  0
    5.2653    0.3389   -1.9529 H   0  0  0  0  0  0  0  0  0  0  0  0
    6.9797    1.4404   -0.1980 H   0  0  0  0  0  0  0  0  0  0  0  0
    7.2231    3.2274    1.5518 H   0  0  0  0  0  0  0  0  0  0  0  0
    5.4252    3.6433    3.0787 H   0  0  0  0  0  0  0  0  0  0  0  0
    4.0524    1.6968    3.7009 H   0  0  0  0  0  0  0  0  0  0  0  0
    4.0504   -0.2882    2.2947 H   0  0  0  0  0  0  0  0  0  0  0  0
    6.6294    3.4160    2.0808 H   0  0  0  0  0  0  0  0  0  0  0  0
    8.4267    5.0841    1.5318 H   0  0  0  0  0  0  0  0  0  0  0  0
   10.4443    4.3466    0.4722 H   0  0  0  0  0  0  0  0  0  0  0  0
   10.2308    2.4371   -1.0669 H   0  0  0  0  0  0  0  0  0  0  0  0
    8.3000    0.9652   -0.9169 H   0  0  0  0  0  0  0  0  0  0  0  0
    6.4908    1.6263   -2.5593 H   0  0  0  0  0  0  0  0  0  0  0  0
    5.2796    0.6660   -4.5406 H   0  0  0  0  0  0  0  0  0  0  0  0
    4.3623   -1.5429   -4.4120 H   0  0  0  0  0  0  0  0  0  0  0  0
    3.5603   -2.2619   -2.1984 H   0  0  0  0  0  0  0  0  0  0  0  0
    4.3424   -1.1260   -0.1946 H   0  0  0  0  0  0  0  0  0  0  0  0
  1  2  1  0  0  0  0
  2  3  1  0  0  0  0
  2  7  1  0  0  0  0
  3  4  2  0  0  0  0
  4  5  1  0  0  0  0
  4 20  1  0  0  0  0
  4 26  1  0  0  0  0
  5  6  1  0  0  0  0
  5 32  1  0  0  0  0
  5 33  1  0  0  0  0
  6  7  2  0  0  0  0
  6  8  1  0  0  0  0
  6 14  1  0  0  0  0
  8  9  1  0  0  0  0
  8 13  2  0  0  0  0
  9 10  2  0  0  0  0
  9 34  1  0  0  0  0
 10 11  1  0  0  0  0
 10 35  1  0  0  0  0
 11 12  2  0  0  0  0
 11 36  1  0  0  0  0
 12 13  1  0  0  0  0
 12 37  1  0  0  0  0
 13 38  1  0  0  0  0
 14 15  1  0  0  0  0
 14 19  2  0  0  0  0
 15 16  2  0  0  0  0
 15 39  1  0  0  0  0
 16 17  1  0  0  0  0
 16 40  1  0  0  0  0
 17 18  2  0  0  0  0
 17 41  1  0  0  0  0
 18 19  1  0  0  0  0
 18 42  1  0  0  0  0
 19 43  1  0  0  0  0
 20 21  1  0  0  0  0
 20 25  2  0  0  0  0
 21 22  2  0  0  0  0
 21 44  1  0  0  0  0
 22 23  1  0  0  0  0
 22 45  1  0  0  0  0
 23 24  2  0  0  0  0
 23 46  1  0  0  0  0
 24 25  1  0  0  0  0
 24 47  1  0  0  0  0
 25 48  1  0  0  0  0
 26 27  1  0  0  0  0
 26 31  2  0  0  0  0
 27 28  2  0  0  0  0
 27 49  1  0  0  0  0
 28 29  1  0  0  0  0
 28 50  1  0  0  0  0
 29 30  2  0  0  0  0
 29 51  1  0  0  0  0
 30 31  1  0  0  0  0
 30 52  1  0  0  0  0
 31 53  1  0  0  0  0
M  END
$$$$
