
     RDKit          3D

 64 65  0  0  0  0  0  0  0  0999 V2000
    2.6755   -0.3291    2.1661 C   0  0  0  0  0  0  0  0  0  0  0  0
    2.0573    0.0221    0.8878 C   0  0  0  0  0  0  0  0  0  0  0  0
    0.7714   -0.2548    0.8113 N   0  0  0  0  0  0  0  0  0  0  0  0
    0.2269    0.0615   -0.3332 N   0  0  0  0  0  0  0  0  0  0  0  0
   -1.5401   -0.1883   -0.8777 Pt  0  0  0  0  0  6  0  0  0  0  0  0
   -0.7915   -1.7046   -1.7856 C   0  0  0  0  0  0  0  0  0  0  0  0
   -1.0771    0.7599   -2.4729 C   0  0  0  0  0  0  0  0  0  0  0  0
   -3.1181   -0.6303   -1.7955 C   0  0  0  0  0  0  0  0  0  0  0  0
   -1.9335   -1.4904    0.4825 P   0  0  0  0  0  5  0  0  0  0  0  0
   -1.5376   -1.1083    2.1289 C   0  0  0  0  0  0  0  0  0  0  0  0
   -3.7534   -1.4929    0.7490 C   0  0  0  0  0  0  0  0  0  0  0  0
   -1.9730   -3.1713   -0.0637 C   0  0  0  0  0  0  0  0  0  0  0  0
   -2.1259    1.3940   -0.1305 P   0  0  0  0  0  5  0  0  0  0  0  0
   -0.6609    2.5357   -0.2210 C   0  0  0  0  0  0  0  0  0  0  0  0
   -2.2960    1.7554    1.5499 C   0  0  0  0  0  0  0  0  0  0  0  0
   -3.0689    2.4454   -1.2805 C   0  0  0  0  0  0  0  0  0  0  0  0
    1.2173    0.5746   -1.0412 N   0  0  0  0  0  0  0  0  0  0  0  0
    2.3608    0.5721   -0.3364 C   0  0  0  0  0  0  0  0  0  0  0  0
    3.5624    1.1092   -0.9798 C   0  0  0  0  0  0  0  0  0  0  0  0
    4.7029    1.3445   -0.0552 C   0  0  0  0  0  0  0  0  0  0  0  0
    5.4488    0.0357    0.0865 C   0  0  0  0  0  0  0  0  0  0  0  0
    4.6590   -0.9753    0.8870 C   0  0  0  0  0  0  0  0  0  0  0  0
    4.1548   -0.4225    2.1811 C   0  0  0  0  0  0  0  0  0  0  0  0
    2.3709    0.4312    2.9455 H   0  0  0  0  0  0  0  0  0  0  0  0
    2.2486   -1.2833    2.5987 H   0  0  0  0  0  0  0  0  0  0  0  0
   -0.0464   -2.2170   -1.1042 H   0  0  0  0  0  0  0  0  0  0  0  0
   -1.5596   -2.3930   -2.1274 H   0  0  0  0  0  0  0  0  0  0  0  0
   -0.1827   -1.4206   -2.6525 H   0  0  0  0  0  0  0  0  0  0  0  0
   -1.5984    1.6698   -2.6234 H   0  0  0  0  0  0  0  0  0  0  0  0
   -1.2704    0.1283   -3.3755 H   0  0  0  0  0  0  0  0  0  0  0  0
    0.0156    0.9468   -2.5257 H   0  0  0  0  0  0  0  0  0  0  0  0
   -3.9183   -0.0876   -1.3018 H   0  0  0  0  0  0  0  0  0  0  0  0
   -3.1428   -0.2261   -2.8532 H   0  0  0  0  0  0  0  0  0  0  0  0
   -3.2143   -1.7020   -1.9325 H   0  0  0  0  0  0  0  0  0  0  0  0
   -0.6718   -1.9073    0.5458 H   0  0  0  0  0  0  0  0  0  0  0  0
   -1.0427   -1.9200    2.7884 H   0  0  0  0  0  0  0  0  0  0  0  0
   -0.9250   -0.2266    2.3645 H   0  0  0  0  0  0  0  0  0  0  0  0
   -2.3827   -0.9626    2.8911 H   0  0  0  0  0  0  0  0  0  0  0  0
   -4.2092   -1.7217   -0.1896 H   0  0  0  0  0  0  0  0  0  0  0  0
   -3.9443   -0.5306    1.1340 H   0  0  0  0  0  0  0  0  0  0  0  0
   -4.0039   -2.2863    1.5015 H   0  0  0  0  0  0  0  0  0  0  0  0
   -1.2580   -3.7750   -0.5961 H   0  0  0  0  0  0  0  0  0  0  0  0
   -2.3286   -3.7925    0.7994 H   0  0  0  0  0  0  0  0  0  0  0  0
   -2.8323   -3.3202   -0.8020 H   0  0  0  0  0  0  0  0  0  0  0  0
   -3.3557    0.9607    0.0458 H   0  0  0  0  0  0  0  0  0  0  0  0
    0.0504    2.0484    0.4177 H   0  0  0  0  0  0  0  0  0  0  0  0
   -0.3607    2.4316   -1.2422 H   0  0  0  0  0  0  0  0  0  0  0  0
   -0.9741    3.5526    0.0461 H   0  0  0  0  0  0  0  0  0  0  0  0
   -2.7243    2.8341    1.5780 H   0  0  0  0  0  0  0  0  0  0  0  0
   -1.3808    1.9997    2.1915 H   0  0  0  0  0  0  0  0  0  0  0  0
   -2.8439    1.1902    2.3216 H   0  0  0  0  0  0  0  0  0  0  0  0
   -2.4929    3.2225   -1.8452 H   0  0  0  0  0  0  0  0  0  0  0  0
   -3.5480    1.9389   -2.1423 H   0  0  0  0  0  0  0  0  0  0  0  0
   -3.7792    3.1590   -0.7481 H   0  0  0  0  0  0  0  0  0  0  0  0
    3.2745    2.0796   -1.4748 H   0  0  0  0  0  0  0  0  0  0  0  0
    3.9288    0.4817   -1.8225 H   0  0  0  0  0  0  0  0  0  0  0  0
    5.3962    2.0551   -0.5503 H   0  0  0  0  0  0  0  0  0  0  0  0
    4.4303    1.8211    0.8965 H   0  0  0  0  0  0  0  0  0  0  0  0
    6.4900    0.1615    0.4469 H   0  0  0  0  0  0  0  0  0  0  0  0
    5.5205   -0.3844   -0.9416 H   0  0  0  0  0  0  0  0  0  0  0  0
    3.8474   -1.3886    0.2573 H   0  0  0  0  0  0  0  0  0  0  0  0
    5.3727   -1.8221    1.0606 H   0  0  0  0  0  0  0  0  0  0  0  0
    4.4521   -1.1251    2.9972 H   0  0  0  0  0  0  0  0  0  0  0  0
    4.6320    0.5373    2.4661 H   0  0  0  0  0  0  0  0  0  0  0  0
  1  2  1  0
  2  3  2  0
  3  4  1  0
  4  5  1  0
  5  6  1  0
  5  7  1  0
  5  8  1  0
  5  9  1  0
  9 10  1  0
  9 11  1  0
  9 12  1  0
  5 13  1  0
 13 14  1  0
 13 15  1  0
 13 16  1  0
  4 17  1  0
 17 18  2  0
 18 19  1  0
 19 20  1  0
 20 21  1  0
 21 22  1  0
 22 23  1  0
 23  1  1  0
 18  2  1  0
  1 24  1  0
  1 25  1  0
  6 26  1  0
  6 27  1  0
  6 28  1  0
  7 29  1  0
  7 30  1  0
  7 31  1  0
  8 32  1  0
  8 33  1  0
  8 34  1  0
  9 35  1  0
 10 36  1  0
 10 37  1  0
 10 38  1  0
 11 39  1  0
 11 40  1  0
 11 41  1  0
 12 42  1  0
 12 43  1  0
 12 44  1  0
 13 45  1  0
 14 46  1  0
 14 47  1  0
 14 48  1  0
 15 49  1  0
 15 50  1  0
 15 51  1  0
 16 52  1  0
 16 53  1  0
 16 54  1  0
 19 55  1  0
 19 56  1  0
 20 57  1  0
 20 58  1  0
 21 59  1  0
 21 60  1  0
 22 61  1  0
 22 62  1  0
 23 63  1  0
 23 64  1  0
M  END
