
 OpenBabel09252514473D

 55 59  0  0  0  0  0  0  0  0999 V2000
    0.9219    0.0509    0.0363 H   0  0  0  0  0  0  0  0  0  0  0  0
    1.9919    0.0509    0.0363 C   0  0  0  0  0  3  0  0  0  0  0  0
    2.5042   -1.3321   -0.3729 C   0  0  0  0  0  3  0  0  0  0  0  0
    2.1150   -2.0694    0.2978 H   0  0  0  0  0  0  0  0  0  0  0  0
    2.0739   -1.6242   -1.7041 C   0  0  0  0  0  3  0  0  0  0  0  0
    2.4142   -2.6060   -1.9594 H   0  0  0  0  0  0  0  0  0  0  0  0
    2.5614   -0.7102   -2.6881 C   0  0  0  0  0  3  0  0  0  0  0  0
    4.3913   -0.7144   -2.6715 P   0  0  0  0  0  0  0  0  0  0  0  0
    5.2985   -2.2306   -2.1951 C   0  0  0  0  0  3  0  0  0  0  0  0
    6.5107   -2.3991   -1.2762 C   0  0  0  0  0  3  0  0  0  0  0  0
    7.4090   -2.2730   -1.8438 H   0  0  0  0  0  0  0  0  0  0  0  0
    6.4611   -1.4178   -0.2383 C   0  0  0  0  0  3  0  0  0  0  0  0
    7.3315   -1.5314    0.3736 H   0  0  0  0  0  0  0  0  0  0  0  0
    5.3079   -1.5135    0.5998 C   0  0  0  0  0  3  0  0  0  0  0  0
    5.2784   -2.4803    1.0572 H   0  0  0  0  0  0  0  0  0  0  0  0
    4.0470   -1.3091   -0.2433 C   0  0  0  0  0  3  0  0  0  0  0  0
    3.1808   -1.4223    0.3746 H   0  0  0  0  0  0  0  0  0  0  0  0
    4.0172   -2.3532   -1.3639 C   0  0  0  0  0  3  0  0  0  0  0  0
    3.9576   -3.3335   -0.9392 H   0  0  0  0  0  0  0  0  0  0  0  0
    4.4029   -0.3166   -1.3847 S   0  0  0  0  0  0  0  0  0  0  0  0
    5.0855   -1.0351   -0.4444 Cu  0  0  0  0  0  0  0  0  0  0  0  0
    4.5474   -0.6761    2.1873 I   0  0  0  0  0  0  0  0  0  0  0  0
    6.0547   -1.9490   -0.8357 S   0  0  0  0  0  0  0  0  0  0  0  0
    6.1005   -2.3987   -2.0697 P   0  0  0  0  0  0  0  0  0  0  0  0
    4.7745   -2.3742   -0.8088 C   0  0  0  0  0  3  0  0  0  0  0  0
    4.1934   -0.9623   -0.7038 C   0  0  0  0  0  3  0  0  0  0  0  0
    4.9742   -0.2723   -0.4608 H   0  0  0  0  0  0  0  0  0  0  0  0
    3.6054   -0.5956   -1.9538 C   0  0  0  0  0  3  0  0  0  0  0  0
    3.2339    0.4043   -1.8700 H   0  0  0  0  0  0  0  0  0  0  0  0
    2.5289   -1.4415   -2.3622 C   0  0  0  0  0  3  0  0  0  0  0  0
    1.7603   -1.4253   -1.6179 H   0  0  0  0  0  0  0  0  0  0  0  0
    3.0426   -2.8729   -2.5342 C   0  0  0  0  0  3  0  0  0  0  0  0
    2.2294   -3.5159   -2.7989 H   0  0  0  0  0  0  0  0  0  0  0  0
    3.6621   -3.3463   -1.2155 C   0  0  0  0  0  3  0  0  0  0  0  0
    2.9105   -3.3699   -0.4543 H   0  0  0  0  0  0  0  0  0  0  0  0
    6.4238   -3.9239   -3.0280 C   0  0  0  0  0  3  0  0  0  0  0  0
    5.0328   -4.5580   -3.1009 C   0  0  0  0  0  3  0  0  0  0  0  0
    4.6301   -4.6491   -2.1138 H   0  0  0  0  0  0  0  0  0  0  0  0
    4.1745   -3.7329   -3.8915 C   0  0  0  0  0  3  0  0  0  0  0  0
    3.2005   -4.1758   -3.9039 H   0  0  0  0  0  0  0  0  0  0  0  0
    4.6087   -3.5656   -5.2423 C   0  0  0  0  0  3  0  0  0  0  0  0
    4.6762   -4.5225   -5.7165 H   0  0  0  0  0  0  0  0  0  0  0  0
    5.9826   -2.8913   -5.2561 C   0  0  0  0  0  3  0  0  0  0  0  0
    6.3283   -2.8034   -6.2649 H   0  0  0  0  0  0  0  0  0  0  0  0
    6.9680   -3.7421   -4.4488 C   0  0  0  0  0  3  0  0  0  0  0  0
    7.0812   -4.6987   -4.9145 H   0  0  0  0  0  0  0  0  0  0  0  0
    5.1170   -1.9520   -3.1125 C   0  0  0  0  0  0  0  0  0  0  0  0
    4.4006   -2.7325   -3.2623 H   0  0  0  0  0  0  0  0  0  0  0  0
    5.6412   -1.7450   -4.0221 H   0  0  0  0  0  0  0  0  0  0  0  0
    2.0514    0.6980   -2.3726 C   0  0  0  0  0  3  0  0  0  0  0  0
    2.4497    1.3908   -3.0841 H   0  0  0  0  0  0  0  0  0  0  0  0
    2.5048    1.0925   -0.9636 C   0  0  0  0  0  3  0  0  0  0  0  0
    3.5736    1.1283   -0.9276 H   0  0  0  0  0  0  0  0  0  0  0  0
    4.9237    0.9397   -1.3695 H   0  0  0  0  0  0  0  0  0  0  0  0
    5.9076   -3.0367   -0.0327 H   0  0  0  0  0  0  0  0  0  0  0  0
  1  2  1  0  0  0  0
  2  3  1  0  0  0  0
  2 52  1  0  0  0  0
  3  4  1  0  0  0  0
  3  5  1  0  0  0  0
  5  6  1  0  0  0  0
  5  7  1  0  0  0  0
  7  8  1  0  0  0  0
  7 50  1  0  0  0  0
  8  9  1  0  0  0  0
  8 20  2  0  0  0  0
  8 47  1  0  0  0  0
  9 10  1  0  0  0  0
  9 18  1  0  0  0  0
 10 11  1  0  0  0  0
 10 12  1  0  0  0  0
 12 13  1  0  0  0  0
 12 14  1  0  0  0  0
 14 15  1  0  0  0  0
 14 16  1  0  0  0  0
 16 17  1  0  0  0  0
 16 18  1  0  0  0  0
 18 19  1  0  0  0  0
 20 21  1  0  0  0  0
 20 54  1  0  0  0  0
 21 22  1  0  0  0  0
 21 23  1  0  0  0  0
 23 24  2  0  0  0  0
 23 55  1  0  0  0  0
 24 25  1  0  0  0  0
 24 36  1  0  0  0  0
 24 47  1  0  0  0  0
 25 26  1  0  0  0  0
 25 34  1  0  0  0  0
 26 27  1  0  0  0  0
 26 28  1  0  0  0  0
 28 29  1  0  0  0  0
 28 30  1  0  0  0  0
 30 31  1  0  0  0  0
 30 32  1  0  0  0  0
 32 33  1  0  0  0  0
 32 34  1  0  0  0  0
 34 35  1  0  0  0  0
 36 37  1  0  0  0  0
 36 45  1  0  0  0  0
 37 38  1  0  0  0  0
 37 39  1  0  0  0  0
 39 40  1  0  0  0  0
 39 41  1  0  0  0  0
 41 42  1  0  0  0  0
 41 43  1  0  0  0  0
 43 44  1  0  0  0  0
 43 45  1  0  0  0  0
 45 46  1  0  0  0  0
 47 48  1  0  0  0  0
 47 49  1  0  0  0  0
 50 51  1  0  0  0  0
 50 52  1  0  0  0  0
 52 53  1  0  0  0  0
M  END
$$$$
