
 OpenBabel08122501123D

 28 28  0  0  0  0  0  0  0  0999 V2000
    0.8874   -0.1702    0.0799 C   0  0  0  0  0  0  0  0  0  0  0  0
    0.5803    1.2625    0.4975 C   0  0  0  0  0  0  0  0  0  0  0  0
    1.0523    2.4739   -0.3216 C   0  0  0  0  0  0  0  0  0  0  0  0
    0.6324    3.7776    0.2608 C   0  0  0  0  0  0  0  0  0  0  0  0
   -0.0787    3.9743    1.3863 C   0  0  0  0  0  0  0  0  0  0  0  0
   -0.4242    5.3058    1.9112 C   0  0  0  0  0  0  0  0  0  0  0  0
   -0.8595    6.3495    1.0806 C   0  0  0  0  0  0  0  0  0  0  0  0
   -1.2123    7.5872    1.6254 C   0  0  0  0  0  0  0  0  0  0  0  0
   -1.1399    7.7785    2.9995 C   0  0  0  0  0  0  0  0  0  0  0  0
   -1.4831    8.9633    3.5209 F   0  0  0  0  0  0  0  0  0  0  0  0
   -0.7234    6.7551    3.8410 C   0  0  0  0  0  0  0  0  0  0  0  0
   -0.3708    5.5175    3.2976 C   0  0  0  0  0  0  0  0  0  0  0  0
    1.7872    2.4443   -1.4696 C   0  0  0  0  0  0  0  0  0  0  0  0
    2.2738    1.2510   -2.0766 C   0  0  0  0  0  0  0  0  0  0  0  0
    2.6895    0.2958   -2.5887 N   0  0  0  0  0  0  0  0  0  0  0  0
    2.1393    3.6366   -2.1773 C   0  0  0  0  0  0  0  0  0  0  0  0
    2.4097    4.6111   -2.7476 N   0  0  0  0  0  0  0  0  0  0  0  0
    0.4706   -0.4029   -0.9044 H   0  0  0  0  0  0  0  0  0  0  0  0
    0.4285   -0.8653    0.7923 H   0  0  0  0  0  0  0  0  0  0  0  0
    1.9628   -0.3698    0.0895 H   0  0  0  0  0  0  0  0  0  0  0  0
   -0.5148    1.3209    0.5698 H   0  0  0  0  0  0  0  0  0  0  0  0
    0.9768    1.3709    1.5162 H   0  0  0  0  0  0  0  0  0  0  0  0
    0.9566    4.6771   -0.2639 H   0  0  0  0  0  0  0  0  0  0  0  0
   -0.4239    3.1506    2.0042 H   0  0  0  0  0  0  0  0  0  0  0  0
   -0.9397    6.2103    0.0050 H   0  0  0  0  0  0  0  0  0  0  0  0
   -1.5479    8.3986    0.9873 H   0  0  0  0  0  0  0  0  0  0  0  0
   -0.6776    6.9250    4.9119 H   0  0  0  0  0  0  0  0  0  0  0  0
   -0.0459    4.7233    3.9664 H   0  0  0  0  0  0  0  0  0  0  0  0
  1  2  1  0  0  0  0
  1 18  1  0  0  0  0
  1 19  1  0  0  0  0
  1 20  1  0  0  0  0
  2  3  1  0  0  0  0
  2 21  1  0  0  0  0
  2 22  1  0  0  0  0
  3  4  1  0  0  0  0
  3 13  2  0  0  0  0
  4  5  2  0  0  0  0
  4 23  1  0  0  0  0
  5  6  1  0  0  0  0
  5 24  1  0  0  0  0
  6  7  1  0  0  0  0
  6 12  2  0  0  0  0
  7  8  2  0  0  0  0
  7 25  1  0  0  0  0
  8  9  1  0  0  0  0
  8 26  1  0  0  0  0
  9 10  1  0  0  0  0
  9 11  2  0  0  0  0
 11 12  1  0  0  0  0
 11 27  1  0  0  0  0
 12 28  1  0  0  0  0
 13 14  1  0  0  0  0
 13 16  1  0  0  0  0
 14 15  3  0  0  0  0
 16 17  3  0  0  0  0
M  END
$$$$
