
  --CCDC--092525    3D                              

 64 65  0  0  0  0  0  0  0  0999 V2000
    1.1599    0.5024    0.5063 H      0
    0.2170    0.4227    1.0453 C      0
   -0.4553   -0.2418    0.5045 H      0
   -0.4134    1.7908    1.0726 C      0
   -1.6608    1.9742    0.7015 N      0
   -1.9875    3.2684    0.9101 N      0
   -3.2496    3.8104    0.8006 O      0
   -2.9964    4.8022    1.8230 C      0
   -3.4619    5.7514    1.6878 H      0
   -1.9669    5.0534    2.0171 H      0
   -3.3137    4.5134    2.8201 H      0
   -3.5001    2.8484    1.8475 C      0
   -4.3141    3.0760    2.5127 H      0
   -2.6657    2.7591    2.5422 H      0
   -3.7011    1.8299    1.5205 H      0
   -3.7698    2.8920   -0.1815 C      0
   -4.6579    2.3494    0.1036 H      0
   -3.1190    2.0724   -0.4489 H      0
   -4.0068    3.3255   -1.1343 H      0
   -2.5148    4.6932   -0.4320 P      0
   -3.3814    5.3286   -1.9049 C      0
   -3.5668    4.5264   -2.6160 H      0
   -2.7453    6.0502   -2.4132 H      0
   -4.3310    5.8127   -1.7256 H      0
   -1.9092    6.3405    0.0626 C      0
   -2.6417    6.9956    0.5186 H      0
   -1.5344    6.8590   -0.8174 H      0
   -1.0710    6.2556    0.7502 H      0
   -1.7049    3.6087   -1.6555 C      0
   -2.3812    2.9135   -2.1487 H      0
   -0.8761    3.0482   -1.2322 H      0
   -1.2801    4.2285   -2.4423 H      0
   -4.8164    4.4518    0.8166 P      0
   -6.0984    3.4244    1.6208 C      0
   -5.9435    2.3535    1.5186 H      0
   -6.1878    3.6536    2.6819 H      0
   -7.0704    3.6493    1.1877 H      0
   -5.0843    6.2484    0.6120 C      0
   -4.4051    6.7502   -0.0597 H      0
   -5.0585    6.7773    1.5639 H      0
   -6.0859    6.4132    0.2214 H      0
   -5.9852    4.1551   -0.5562 C      0
   -6.3200    3.1200   -0.5667 H      0
   -6.8740    4.7689   -0.4268 H      0
   -5.5950    4.3764   -1.5417 H      0
   -0.9081    3.8904    1.4226 N      0
    0.0713    3.0208    1.5358 C      0
    1.3856    3.3927    2.1430 C      0
    1.5256    4.4672    2.0341 H      0
    2.1753    2.8676    1.6077 H      0
    1.4843    3.0393    3.6191 C      0
    0.9578    3.8116    4.1779 H      0
    2.5390    3.0505    3.8900 H      0
    0.9184    1.7031    4.0435 C      0
   -0.1564    1.7257    3.8699 H      0
    1.1116    1.5820    5.1084 H      0
    1.4882    0.4696    3.3171 C      0
    1.8093   -0.2511    4.0677 H      0
    2.3470    0.7867    2.7274 H      0
    0.5076   -0.2114    2.3964 C      0
    0.8891   -1.2133    2.2054 H      0
   -0.4395   -0.2792    2.9296 H      0
   -1.1208    4.6536   -0.3459 H      0
   -5.0732    4.8622    2.1305 H      0
  1  2  1
  2  3  1
  2  4  1
  4  5  2
  5  6  1
  6  7  1
  7  8  1
  8  9  1
  8 10  1
  8 11  1
  7 12  1
 12 13  1
 12 14  1
 12 15  1
  7 16  1
 16 17  1
 16 18  1
 16 19  1
  7 20  1
 20 21  1
 21 22  1
 21 23  1
 21 24  1
 20 25  1
 25 26  1
 25 27  1
 25 28  1
 20 29  1
 29 30  1
 29 31  1
 29 32  1
  7 33  1
 33 34  1
 34 35  1
 34 36  1
 34 37  1
 33 38  1
 38 39  1
 38 40  1
 38 41  1
 33 42  1
 42 43  1
 42 44  1
 42 45  1
  6 46  1
 46 47  2
  4 47  1
 47 48  1
 48 49  1
 48 50  1
 48 51  1
 51 52  1
 51 53  1
 51 54  1
 54 55  1
 54 56  1
 54 57  1
 57 58  1
 57 59  1
 57 60  1
  2 60  1
 60 61  1
 60 62  1
 20 63  1
 33 64  1
M  END
$$$$
