
 OpenBabel09252518493D

 53 64  0  0  1  0  0  0  0  0999 V2000
    1.0633   -0.0269    0.0725 H   0  0  0  0  0  0  0  0  0  0  0  0
    2.1333   -0.0269    0.0725 C   0  0  0  0  0  0  0  0  0  0  0  0
    2.4900    0.1308    1.0689 H   0  0  0  0  0  0  0  0  0  0  0  0
    2.4900   -0.9687   -0.2891 H   0  0  0  0  0  0  0  0  0  0  0  0
    2.6400    1.0869   -0.8292 C   0  0  0  0  0  0  0  0  0  0  0  0
    3.0603    2.0108   -1.5773 N   0  0  0  0  0  4  0  0  0  0  0  0
    3.7837    3.6009   -2.8647 Ru  0  0  0  0  0  0  0  0  0  0  0  0
    2.0933    3.6906   -4.3010 C   0  0  0  0  0  0  0  0  0  0  0  0
    1.1661    3.7398   -5.0894 O   0  0  0  0  0  0  0  0  0  0  0  0
    4.4529    2.3438   -2.2999 Br  0  0  0  0  0  2  0  0  0  0  0  0
    4.0741    2.2033   -0.8860 Ru  0  3  0  0  0  0  0  0  0  0  0  0
    2.9866    0.9903   -2.3941 C   0  0  0  0  0  0  0  0  0  0  0  0
    2.5096    0.2878   -3.2674 O   0  0  0  0  0  0  0  0  0  0  0  0
    1.9499    1.7760   -1.0043 N   0  0  0  0  0  4  0  0  0  0  0  0
    0.7010    1.6081   -1.0508 C   0  0  0  0  0  0  0  0  0  0  0  0
   -0.8045    1.4058   -1.1069 C   0  0  0  0  0  0  0  0  0  0  0  0
   -1.2488    1.7844   -0.2101 H   0  0  0  0  0  0  0  0  0  0  0  0
   -1.2034    1.9286   -1.9509 H   0  0  0  0  0  0  0  0  0  0  0  0
   -1.0208    0.3620   -1.1990 H   0  0  0  0  0  0  0  0  0  0  0  0
    4.7035    3.7095    2.3394 C   0  0  2  0  0  0  0  0  0  0  0  0
    4.6932    4.1154    3.3293 H   0  0  0  0  0  0  0  0  0  0  0  0
    5.9610    3.7510    1.5840 C   0  0  1  0  0  0  0  0  0  0  0  0
    6.7753    4.0753    2.1977 H   0  0  0  0  0  0  0  0  0  0  0  0
    5.7501    3.5545    0.2696 C   0  0  1  0  0  0  0  0  0  0  0  0
    4.2800    3.3387    0.0130 C   0  0  1  0  0  0  0  0  0  0  0  0
    3.6804    3.0324    1.3991 C   0  0  2  0  0  0  0  0  0  0  0  0
    2.9376    2.8484    2.1470 H   0  0  0  0  0  0  0  0  0  0  0  0
    3.6368    4.5963   -0.5750 C   0  0  0  0  0  0  0  0  0  0  0  0
    3.2358    6.0464   -0.3587 C   0  0  0  0  0  0  0  0  0  0  0  0
    4.1319    6.6286   -0.3056 H   0  0  0  0  0  0  0  0  0  0  0  0
    2.6338    6.3917   -1.1731 H   0  0  0  0  0  0  0  0  0  0  0  0
    2.6900    6.1475    0.5561 H   0  0  0  0  0  0  0  0  0  0  0  0
    2.5518    4.0036    0.3093 C   0  0  0  0  0  0  0  0  0  0  0  0
    2.3453    4.6736    1.1176 H   0  0  0  0  0  0  0  0  0  0  0  0
    1.6620    3.8533   -0.2656 H   0  0  0  0  0  0  0  0  0  0  0  0
    2.8866    3.0656    0.7002 H   0  0  0  0  0  0  0  0  0  0  0  0
    4.1561    4.8086   -2.0005 C   0  0  1  0  0  0  0  0  0  0  0  0
    3.8501    6.7894   -0.4776 C   0  0  2  0  0  0  0  0  0  0  0  0
    3.5790    7.6854    0.0406 H   0  0  0  0  0  0  0  0  0  0  0  0
    4.7776    5.6107   -0.7242 C   0  0  2  0  0  0  0  0  0  0  0  0
    4.7917    5.0385    0.1799 H   0  0  0  0  0  0  0  0  0  0  0  0
    6.1751    6.1218   -1.0342 C   0  0  2  0  0  0  0  0  0  0  0  0
    6.6604    7.0487   -0.8100 H   0  0  0  0  0  0  0  0  0  0  0  0
    7.1026    4.9431   -1.2808 C   0  0  1  0  0  0  0  0  0  0  0  0
    7.1476    4.0656   -0.0405 C   0  0  0  0  0  0  0  0  0  0  0  0
    8.5841    4.3810    0.3435 C   0  0  0  0  0  0  0  0  0  0  0  0
    9.2337    4.1488   -0.4744 H   0  0  0  0  0  0  0  0  0  0  0  0
    8.6676    5.4209    0.5812 H   0  0  0  0  0  0  0  0  0  0  0  0
    8.8613    3.7969    1.1961 H   0  0  0  0  0  0  0  0  0  0  0  0
    7.1581    2.8796    0.9101 C   0  0  0  0  0  0  0  0  0  0  0  0
    7.5358    3.1896    1.8620 H   0  0  0  0  0  0  0  0  0  0  0  0
    6.1626    2.5048    1.0263 H   0  0  0  0  0  0  0  0  0  0  0  0
    7.7849    2.1096    0.5112 H   0  0  0  0  0  0  0  0  0  0  0  0
  1  2  1  0  0  0  0
  2  3  1  0  0  0  0
  2  4  1  0  0  0  0
  2  5  1  0  0  0  0
  5  6  3  0  0  0  0
  6  7  1  0  0  0  0
  7 10  1  0  0  0  0
  7 37  1  0  0  0  0
  7 38  1  0  0  0  0
  7 40  1  0  0  0  0
  7 42  1  0  0  0  0
  7 44  1  0  0  0  0
  7  8  1  0  0  0  0
  8  9  3  0  0  0  0
 10 11  1  0  0  0  0
 11 20  1  0  0  0  0
 11 22  1  0  0  0  0
 11 24  1  0  0  0  0
 11 25  1  0  0  0  0
 11 26  1  0  0  0  0
 11 12  1  0  0  0  0
 11 14  1  0  0  0  0
 12 13  3  0  0  0  0
 14 15  3  0  0  0  0
 15 16  1  0  0  0  0
 16 17  1  0  0  0  0
 16 18  1  0  0  0  0
 16 19  1  0  0  0  0
 20 22  1  0  0  0  0
 20 26  1  0  0  0  0
 20 21  1  6  0  0  0
 22 24  1  0  0  0  0
 22 23  1  6  0  0  0
 24 25  1  0  0  0  0
 24 45  1  1  0  0  0
 25 26  1  0  0  0  0
 25 28  1  1  0  0  0
 26 27  1  6  0  0  0
 28 29  1  0  0  0  0
 28 33  1  0  0  0  0
 29 30  1  0  0  0  0
 29 31  1  0  0  0  0
 29 32  1  0  0  0  0
 33 34  1  0  0  0  0
 33 35  1  0  0  0  0
 33 36  1  0  0  0  0
 37 28  1  6  0  0  0
 37 38  1  0  0  0  0
 37 44  1  0  0  0  0
 38 40  1  0  0  0  0
 38 39  1  1  0  0  0
 40 42  1  0  0  0  0
 40 41  1  1  0  0  0
 42 44  1  0  0  0  0
 42 43  1  1  0  0  0
 44 45  1  6  0  0  0
 45 46  1  0  0  0  0
 45 50  1  0  0  0  0
 46 47  1  0  0  0  0
 46 48  1  0  0  0  0
 46 49  1  0  0  0  0
 50 51  1  0  0  0  0
 50 52  1  0  0  0  0
 50 53  1  0  0  0  0
M  CHG  1  11   1
M  END
$$$$
