
  --CCDC--092525    3D                              

 53 64  0  0  0  0  0  0  0  0999 V2000
    4.2367    5.3533    1.3677 H      0
    5.1168    4.7924    1.0508 C      0
    5.4930    5.2140    0.1184 H      0
    5.8845    4.9160    1.8152 H      0
    4.8256    3.3741    0.8765 C      0
    4.6259    2.2472    0.8428 N      0
    4.2507    0.1384    0.7808 Ru     0
    2.5585    1.4503    0.9059 C      0
    1.6770    2.1725    0.9508 O      0
    3.0585    1.2264   -1.3288 Br     0
    1.6789   -1.0251   -1.2338 Ru     3
    3.5476   -0.8894   -2.2765 C      0
    4.5126   -0.7618   -2.8728 O      0
    1.6980   -0.4532   -3.2929 N      0
    1.5865   -0.2115   -4.4037 C      0
    1.3791   -0.0406   -5.8382 C      0
    1.2246   -1.0095   -6.3176 H      0
    2.2224    0.4528   -6.3143 H      0
    0.4830    0.5572   -6.0173 H      0
   -0.2488   -1.4835   -1.1562 C      0
   -0.1601   -0.8709   -2.1127 H      0
    0.1522   -0.6514    0.0851 C      0
    0.2683    0.4705    0.2682 H      0
    1.3056   -1.3536    0.7852 C      0
    1.6606   -2.5737    0.0227 C      0
    0.6461   -2.7105   -1.1627 C      0
    1.1901   -2.7147   -2.1687 H      0
    3.1792   -2.6504   -0.3508 C      0
    3.4398   -3.9854    0.3846 C      0
    2.6882   -4.7317    0.1310 H      0
    3.4423   -3.9134    1.4666 H      0
    4.4230   -4.3793    0.1233 H      0
    3.5967   -3.3661   -1.6668 C      0
    3.5524   -4.4461   -1.5771 H      0
    4.6328   -3.1383   -1.9038 H      0
    2.9942   -3.1521   -2.5429 H      0
    4.3603   -1.9174    0.4101 C      0
    5.6712   -1.1952    0.1378 C      0
    5.7394   -0.9753   -0.9788 H      0
    6.0548   -0.3921    1.4070 C      0
    6.1727    0.7144    1.1777 H      0
    4.9774   -0.6742    2.4420 C      0
    4.5438    0.3380    2.7441 H      0
    3.9012   -1.5669    1.7685 C      0
    2.4469   -1.0134    1.8153 C      0
    1.9754   -2.1306    2.7736 C      0
    0.9579   -1.9369    3.1096 H      0
    2.6293   -2.2098    3.6414 H      0
    1.9535   -3.1179    2.3306 H      0
    2.0353    0.0020    2.9195 C      0
    2.7483    0.7939    3.1238 H      0
    1.8828   -0.4651    3.8868 H      0
    1.0814    0.4610    2.6651 H      0
  1  2  1
  2  3  1
  2  4  1
  2  5  1
  5  6  3
  6  7  1
  7  8  1
  8  9  3
  7 10  1
 10 11  1
 11 12  1
 12 13  3
 11 14  1
 14 15  3
 15 16  1
 16 17  1
 16 18  1
 16 19  1
 11 20  1
 20 21  1
 20 22  4
 11 22  1
 22 23  1
 22 24  4
 11 24  1
 24 25  4
 11 25  1
 25 26  4
 20 26  4
 11 26  1
 26 27  1
 25 28  1
 28 29  1
 29 30  1
 29 31  1
 29 32  1
 28 33  1
 33 34  1
 33 35  1
 33 36  1
 28 37  1
  7 37  1
 37 38  4
  7 38  1
 38 39  1
 38 40  4
  7 40  1
 40 41  1
 40 42  4
  7 42  1
 42 43  1
 42 44  4
 37 44  4
  7 44  1
 44 45  1
 24 45  1
 45 46  1
 46 47  1
 46 48  1
 46 49  1
 45 50  1
 50 51  1
 50 52  1
 50 53  1
M  CHG  1  11   1
M  END
$$$$
