
     RDKit          3D

  0  0  0  0  0  0  0  0  0  0999 V3000
M  V30 BEGIN CTAB
M  V30 COUNTS 47 52 0 0 0
M  V30 BEGIN ATOM
M  V30 1 C -1.164043 2.259230 -0.740771 0
M  V30 2 C -1.731620 1.198233 0.131505 0
M  V30 3 N -1.460921 0.229921 0.991470 0
M  V30 4 C -1.259796 -0.789780 1.894949 0
M  V30 5 C -1.756575 -2.155526 1.531813 0
M  V30 6 C -0.732073 -2.909656 0.682371 0
M  V30 7 N 0.307083 -2.060718 0.251797 0
M  V30 8 C 1.353196 -1.463217 -0.089582 0
M  V30 9 C 2.149277 -0.341652 -0.582560 0
M  V30 10 C 1.551576 0.538906 -1.504874 0
M  V30 11 O 0.252663 0.119990 -1.781588 0
M  V30 12 Cu -0.677294 -0.518440 -0.496944 0 VAL=4
M  V30 13 O -2.353667 -1.255679 -1.275578 0
M  V30 14 C -3.377860 -0.293600 -1.042975 0
M  V30 15 C -4.638089 -0.662959 -1.517751 0
M  V30 16 C -5.601244 0.288743 -1.307615 0
M  V30 17 C -5.467487 1.517194 -0.705724 0
M  V30 18 C -4.199674 1.865039 -0.236014 0
M  V30 19 C -3.144241 0.991406 -0.381722 0
M  V30 20 C 2.273559 1.641406 -1.994007 0
M  V30 21 C 3.546088 1.742629 -1.491979 0
M  V30 22 C 4.125161 0.888790 -0.597260 0
M  V30 23 C 5.413592 1.102441 -0.166562 0
M  V30 24 C 6.062371 0.291126 0.733015 0
M  V30 25 C 5.363740 -0.778496 1.208266 0
M  V30 26 C 4.073455 -1.008474 0.788824 0
M  V30 27 C 3.438482 -0.188836 -0.111117 0
M  V30 28 H -0.195988 2.654342 -0.234026 0
M  V30 29 H -1.785851 3.174681 -0.716300 0
M  V30 30 H -0.863551 2.059018 -1.745299 0
M  V30 31 H -0.171844 -0.890679 2.158252 0
M  V30 32 H -1.739548 -0.531733 2.878917 0
M  V30 33 H -1.847699 -2.702324 2.478803 0
M  V30 34 H -2.759566 -2.123991 1.089831 0
M  V30 35 H -0.463937 -3.849500 1.168545 0
M  V30 36 H -1.299762 -3.208208 -0.228210 0
M  V30 37 H 2.017627 -2.286470 0.004182 0
M  V30 38 H -4.779594 -1.609107 -1.991130 0
M  V30 39 H -6.603106 0.042942 -1.662054 0
M  V30 40 H -6.207536 2.265863 -0.538945 0
M  V30 41 H -3.833754 2.794161 0.231292 0
M  V30 42 H 1.726709 2.245808 -2.691782 0
M  V30 43 H 4.078397 2.584582 -1.871864 0
M  V30 44 H 5.932416 1.958810 -0.565122 0
M  V30 45 H 7.072043 0.463376 1.066815 0
M  V30 46 H 5.845480 -1.447479 1.925839 0
M  V30 47 H 3.533403 -1.842113 1.167872 0
M  V30 END ATOM
M  V30 BEGIN BOND
M  V30 1 1 1 2
M  V30 2 2 2 3
M  V30 3 1 3 4
M  V30 4 1 4 5
M  V30 5 1 5 6
M  V30 6 1 6 7
M  V30 7 2 7 8
M  V30 8 1 8 9
M  V30 9 2 9 10
M  V30 10 1 10 11
M  V30 11 1 11 12
M  V30 12 1 12 13
M  V30 13 1 13 14
M  V30 14 2 14 15
M  V30 15 1 15 16
M  V30 16 2 16 17
M  V30 17 1 17 18
M  V30 18 2 18 19
M  V30 19 1 10 20
M  V30 20 2 20 21
M  V30 21 1 21 22
M  V30 22 2 22 23
M  V30 23 1 23 24
M  V30 24 2 24 25
M  V30 25 1 25 26
M  V30 26 2 26 27
M  V30 27 1 19 2
M  V30 28 1 27 22
M  V30 29 9 3 12
M  V30 30 1 19 14
M  V30 31 9 7 12
M  V30 32 1 27 9
M  V30 33 1 1 28
M  V30 34 1 1 29
M  V30 35 1 1 30
M  V30 36 1 4 31
M  V30 37 1 4 32
M  V30 38 1 5 33
M  V30 39 1 5 34
M  V30 40 1 6 35
M  V30 41 1 6 36
M  V30 42 1 8 37
M  V30 43 1 15 38
M  V30 44 1 16 39
M  V30 45 1 17 40
M  V30 46 1 18 41
M  V30 47 1 20 42
M  V30 48 1 21 43
M  V30 49 1 23 44
M  V30 50 1 24 45
M  V30 51 1 25 46
M  V30 52 1 26 47
M  V30 END BOND
M  V30 END CTAB
M  END
