
 OpenBabel09252515553D

 49 54  0  0  0  0  0  0  0  0999 V2000
    1.0437    0.0831   -0.0344 C   0  0  0  0  0  0  0  0  0  0  0  0
    0.5371   -0.0792   -1.4583 C   0  0  0  0  0  0  0  0  0  0  0  0
    0.8549    0.8095   -2.3749 N   0  0  0  0  0  0  0  0  0  0  0  0
    1.7000    1.9594   -2.0220 C   0  0  0  0  0  0  0  0  0  0  0  0
    2.9667    1.9338   -2.8618 C   0  0  0  0  0  0  0  0  0  0  0  0
    2.5995    2.0081   -4.3349 C   0  0  0  0  0  0  0  0  0  0  0  0
    1.8645    3.2544   -4.5945 N   0  0  0  0  0  0  0  0  0  0  0  0
    0.6218    3.2339   -5.0366 C   0  0  0  0  0  0  0  0  0  0  0  0
   -0.0140    4.3805   -5.2749 C   0  0  0  0  0  0  0  0  0  0  0  0
    0.6424    5.6127   -5.0652 C   0  0  0  0  0  0  0  0  0  0  0  0
    1.9031    5.6183   -4.6168 O   0  0  0  0  0  0  0  0  0  0  0  0
    2.5192    4.4797   -4.3737 Cu  0  0  0  0  0  0  0  0  0  0  0  0
    4.1483    4.4640   -5.4990 O   0  0  0  0  0  0  0  0  0  0  0  0
    5.0300    3.3517   -5.4563 C   0  0  0  0  0  0  0  0  0  0  0  0
    4.5626    2.0546   -5.8072 C   0  0  0  0  0  0  0  0  0  0  0  0
    5.3394    0.9308   -5.4813 C   0  0  0  0  0  0  0  0  0  0  0  0
    6.5793    1.0800   -5.1180 C   0  0  0  0  0  0  0  0  0  0  0  0
    7.1454    2.3605   -5.0613 C   0  0  0  0  0  0  0  0  0  0  0  0
    6.3042    3.4994   -5.0895 C   0  0  0  0  0  0  0  0  0  0  0  0
   -0.0414    6.8253   -5.3093 C   0  0  0  0  0  0  0  0  0  0  0  0
   -1.3180    6.8399   -5.7456 C   0  0  0  0  0  0  0  0  0  0  0  0
   -2.0282    5.6405   -5.9806 C   0  0  0  0  0  0  0  0  0  0  0  0
   -3.3548    5.6639   -6.4344 C   0  0  0  0  0  0  0  0  0  0  0  0
   -4.0162    4.4906   -6.6517 C   0  0  0  0  0  0  0  0  0  0  0  0
   -3.3938    3.2678   -6.4288 C   0  0  0  0  0  0  0  0  0  0  0  0
   -2.1034    3.2113   -5.9862 C   0  0  0  0  0  0  0  0  0  0  0  0
   -1.3992    4.3947   -5.7552 C   0  0  0  0  0  0  0  0  0  0  0  0
    0.6871   -0.7279    0.5657 H   0  0  0  0  0  0  0  0  0  0  0  0
    0.6871    1.0082    0.3678 H   0  0  0  0  0  0  0  0  0  0  0  0
    2.1137    0.0831   -0.0344 H   0  0  0  0  0  0  0  0  0  0  0  0
    0.5149    0.7006   -3.3304 H   0  0  0  0  0  0  0  0  0  0  0  0
    1.1650    2.8665   -2.2109 H   0  0  0  0  0  0  0  0  0  0  0  0
    1.9585    1.9071   -0.9850 H   0  0  0  0  0  0  0  0  0  0  0  0
    3.5819    2.7708   -2.6050 H   0  0  0  0  0  0  0  0  0  0  0  0
    3.5017    1.0267   -2.6729 H   0  0  0  0  0  0  0  0  0  0  0  0
    3.4912    1.9901   -4.9261 H   0  0  0  0  0  0  0  0  0  0  0  0
    1.9843    1.1711   -4.5918 H   0  0  0  0  0  0  0  0  0  0  0  0
    1.7203    4.0620   -5.2006 H   0  0  0  0  0  0  0  0  0  0  0  0
    0.1263    2.3003   -5.2031 H   0  0  0  0  0  0  0  0  0  0  0  0
    3.6281    1.9363   -6.3147 H   0  0  0  0  0  0  0  0  0  0  0  0
    4.9110   -0.0484   -5.5319 H   0  0  0  0  0  0  0  0  0  0  0  0
    7.1678    0.2238   -4.8621 H   0  0  0  0  0  0  0  0  0  0  0  0
    8.2071    2.4771   -4.9970 H   0  0  0  0  0  0  0  0  0  0  0  0
    0.4652    7.7533   -5.1443 H   0  0  0  0  0  0  0  0  0  0  0  0
   -1.8026    7.7783   -5.9171 H   0  0  0  0  0  0  0  0  0  0  0  0
   -3.8463    6.5980   -6.6094 H   0  0  0  0  0  0  0  0  0  0  0  0
   -5.0282    4.5119   -6.9986 H   0  0  0  0  0  0  0  0  0  0  0  0
   -3.9322    2.3603   -6.6061 H   0  0  0  0  0  0  0  0  0  0  0  0
   -1.6340    2.2647   -5.8172 H   0  0  0  0  0  0  0  0  0  0  0  0
  1  2  1  0  0  0  0
  1 28  1  0  0  0  0
  1 29  1  0  0  0  0
  1 30  1  0  0  0  0
  2  3  2  0  0  0  0
  2 19  1  0  0  0  0
  3  4  1  0  0  0  0
  3 12  1  0  0  0  0
  3 31  1  0  0  0  0
  4  5  1  0  0  0  0
  4 32  1  0  0  0  0
  4 33  1  0  0  0  0
  5  6  1  0  0  0  0
  5 34  1  0  0  0  0
  5 35  1  0  0  0  0
  6  7  1  0  0  0  0
  6 36  1  0  0  0  0
  6 37  1  0  0  0  0
  7  8  2  0  0  0  0
  7 12  1  0  0  0  0
  7 38  1  0  0  0  0
  8  9  1  0  0  0  0
  8 39  1  0  0  0  0
  9 10  1  0  0  0  0
  9 27  2  0  0  0  0
 10 11  1  0  0  0  0
 10 20  2  0  0  0  0
 11 12  1  0  0  0  0
 12 13  1  0  0  0  0
 13 14  1  0  0  0  0
 14 15  1  0  0  0  0
 14 19  2  0  0  0  0
 15 16  2  0  0  0  0
 15 40  1  0  0  0  0
 16 17  1  0  0  0  0
 16 41  1  0  0  0  0
 17 18  2  0  0  0  0
 17 42  1  0  0  0  0
 18 19  1  0  0  0  0
 18 43  1  0  0  0  0
 20 21  1  0  0  0  0
 20 44  1  0  0  0  0
 21 22  2  0  0  0  0
 21 45  1  0  0  0  0
 22 23  1  0  0  0  0
 22 27  1  0  0  0  0
 23 24  2  0  0  0  0
 23 46  1  0  0  0  0
 24 25  1  0  0  0  0
 24 47  1  0  0  0  0
 25 26  2  0  0  0  0
 25 48  1  0  0  0  0
 26 27  1  0  0  0  0
 26 49  1  0  0  0  0
M  END
$$$$
