
 OpenBabel09252518023D

 53 57  0  0  0  0  0  0  0  0999 V2000
    1.0637   -0.0131    0.0759 I   0  0  0  0  0  0  0  0  0  0  0  0
    3.7737   -0.0131    0.0759 Cu  0  0  0  0  0  0  0  0  0  0  0  0
    4.4672    1.1897    0.0764 S   0  0  0  0  0  3  0  0  0  0  0  0
    5.7343    1.2390    0.4219 P   0  0  0  0  0  0  0  0  0  0  0  0
    6.4925    0.0091    0.8301 C   0  0  0  0  0  0  0  0  0  0  0  0
    5.7562   -1.2348    0.4259 P   0  0  0  0  0  0  0  0  0  0  0  0
    4.4561   -1.1966    0.0755 S   0  0  0  0  0  3  0  0  0  0  0  0
    6.2340   -0.9224   -1.3128 C   0  0  0  0  0  0  0  0  0  0  0  0
    6.9676   -1.8711   -2.0059 C   0  0  0  0  0  0  0  0  0  0  0  0
    7.4688   -1.4134   -3.2475 C   0  0  0  0  0  0  0  0  0  0  0  0
    7.0203   -0.3506   -3.8903 C   0  0  0  0  0  0  0  0  0  0  0  0
    6.2445    0.5139   -3.1690 C   0  0  0  0  0  0  0  0  0  0  0  0
    5.8231    0.1951   -1.9007 C   0  0  0  0  0  0  0  0  0  0  0  0
    5.4895    0.1699    1.5681 C   0  0  0  0  0  0  0  0  0  0  0  0
    6.2672    1.3133    1.4866 C   0  0  0  0  0  0  0  0  0  0  0  0
    6.2490    2.1038    2.6599 C   0  0  0  0  0  0  0  0  0  0  0  0
    5.3374    2.0117    3.6110 C   0  0  0  0  0  0  0  0  0  0  0  0
    4.5549    0.8905    3.5968 C   0  0  0  0  0  0  0  0  0  0  0  0
    4.6100    0.0036    2.5488 C   0  0  0  0  0  0  0  0  0  0  0  0
    6.0577    1.9828    2.0624 C   0  0  0  0  0  0  0  0  0  0  0  0
    4.9894    2.4482    2.8110 C   0  0  0  0  0  0  0  0  0  0  0  0
    5.3550    3.3696    3.8207 C   0  0  0  0  0  0  0  0  0  0  0  0
    6.5820    3.5257    4.2835 C   0  0  0  0  0  0  0  0  0  0  0  0
    7.5884    2.9839    3.5333 C   0  0  0  0  0  0  0  0  0  0  0  0
    7.3111    2.1797    2.4542 C   0  0  0  0  0  0  0  0  0  0  0  0
    6.9114    1.5084   -0.9530 C   0  0  0  0  0  0  0  0  0  0  0  0
    7.6580    2.6744   -0.9931 C   0  0  0  0  0  0  0  0  0  0  0  0
    8.3159    2.8918   -2.2269 C   0  0  0  0  0  0  0  0  0  0  0  0
    8.5309    1.9581   -3.1357 C   0  0  0  0  0  0  0  0  0  0  0  0
    7.8126    0.8024   -3.0020 C   0  0  0  0  0  0  0  0  0  0  0  0
    7.0439    0.5732   -1.8864 C   0  0  0  0  0  0  0  0  0  0  0  0
    6.5991    0.0117    1.8948 H   0  0  0  0  0  0  0  0  0  0  0  0
    7.4524    0.0168    0.3575 H   0  0  0  0  0  0  0  0  0  0  0  0
    7.1396   -2.8603   -1.6361 H   0  0  0  0  0  0  0  0  0  0  0  0
    8.2667   -1.9670   -3.6967 H   0  0  0  0  0  0  0  0  0  0  0  0
    7.2516   -0.1753   -4.9202 H   0  0  0  0  0  0  0  0  0  0  0  0
    5.9614    1.4522   -3.5984 H   0  0  0  0  0  0  0  0  0  0  0  0
    5.1578    0.8533   -1.3820 H   0  0  0  0  0  0  0  0  0  0  0  0
    6.8306    1.5749    0.6154 H   0  0  0  0  0  0  0  0  0  0  0  0
    7.0279    2.8265    2.7854 H   0  0  0  0  0  0  0  0  0  0  0  0
    5.2176    2.7734    4.3528 H   0  0  0  0  0  0  0  0  0  0  0  0
    3.8901    0.7011    4.4135 H   0  0  0  0  0  0  0  0  0  0  0  0
    3.9380   -0.8287    2.5228 H   0  0  0  0  0  0  0  0  0  0  0  0
    3.9792    2.1391    2.6413 H   0  0  0  0  0  0  0  0  0  0  0  0
    4.5838    3.9826    4.2382 H   0  0  0  0  0  0  0  0  0  0  0  0
    6.7779    4.0480    5.1966 H   0  0  0  0  0  0  0  0  0  0  0  0
    8.6067    3.1890    3.7901 H   0  0  0  0  0  0  0  0  0  0  0  0
    8.1124    1.7079    1.9248 H   0  0  0  0  0  0  0  0  0  0  0  0
    7.7307    3.3496   -0.1662 H   0  0  0  0  0  0  0  0  0  0  0  0
    8.6633    3.8815   -2.4382 H   0  0  0  0  0  0  0  0  0  0  0  0
    9.2296    2.0984   -3.9338 H   0  0  0  0  0  0  0  0  0  0  0  0
    7.8495    0.0659   -3.7772 H   0  0  0  0  0  0  0  0  0  0  0  0
    6.5476   -0.3673   -1.7686 H   0  0  0  0  0  0  0  0  0  0  0  0
  1  2  1  0  0  0  0
  2  3  1  0  0  0  0
  2  7  1  0  0  0  0
  3  4  2  0  0  0  0
  4  5  1  0  0  0  0
  4 20  1  0  0  0  0
  4 26  1  0  0  0  0
  5  6  1  0  0  0  0
  5 32  1  0  0  0  0
  5 33  1  0  0  0  0
  6  7  2  0  0  0  0
  6  8  1  0  0  0  0
  6 14  1  0  0  0  0
  8  9  1  0  0  0  0
  8 13  2  0  0  0  0
  9 10  2  0  0  0  0
  9 34  1  0  0  0  0
 10 11  1  0  0  0  0
 10 35  1  0  0  0  0
 11 12  2  0  0  0  0
 11 36  1  0  0  0  0
 12 13  1  0  0  0  0
 12 37  1  0  0  0  0
 13 38  1  0  0  0  0
 14 15  1  0  0  0  0
 14 19  2  0  0  0  0
 15 16  2  0  0  0  0
 15 39  1  0  0  0  0
 16 17  1  0  0  0  0
 16 40  1  0  0  0  0
 17 18  2  0  0  0  0
 17 41  1  0  0  0  0
 18 19  1  0  0  0  0
 18 42  1  0  0  0  0
 19 43  1  0  0  0  0
 20 21  1  0  0  0  0
 20 25  2  0  0  0  0
 21 22  2  0  0  0  0
 21 44  1  0  0  0  0
 22 23  1  0  0  0  0
 22 45  1  0  0  0  0
 23 24  2  0  0  0  0
 23 46  1  0  0  0  0
 24 25  1  0  0  0  0
 24 47  1  0  0  0  0
 25 48  1  0  0  0  0
 26 27  1  0  0  0  0
 26 31  2  0  0  0  0
 27 28  2  0  0  0  0
 27 49  1  0  0  0  0
 28 29  1  0  0  0  0
 28 50  1  0  0  0  0
 29 30  2  0  0  0  0
 29 51  1  0  0  0  0
 30 31  1  0  0  0  0
 30 52  1  0  0  0  0
 31 53  1  0  0  0  0
M  END
$$$$
