
     RDKit          3D

 55 59  0  0  0  0  0  0  0  0999 V2000
   -3.6313    3.5329   -0.0811 C   0  0  0  0  0  0  0  0  0  0  0  0
   -2.2985    3.4875    0.2965 C   0  0  0  0  0  0  0  0  0  0  0  0
   -1.6879    2.2790    0.1360 C   0  0  0  0  0  0  0  0  0  0  0  0
   -2.3112    1.1551   -0.3621 C   0  0  0  0  0  0  0  0  0  0  0  0
   -1.5103   -0.4349   -0.5740 P   0  0  0  0  0  5  0  0  0  0  0  0
   -2.6341   -1.6325    0.1810 C   0  0  0  0  0  0  0  0  0  0  0  0
   -3.0485   -1.4640    1.4875 C   0  0  0  0  0  0  0  0  0  0  0  0
   -3.9068   -2.3702    2.0783 C   0  0  0  0  0  0  0  0  0  0  0  0
   -4.3782   -3.4751    1.3797 C   0  0  0  0  0  0  0  0  0  0  0  0
   -3.9669   -3.6414    0.0844 C   0  0  0  0  0  0  0  0  0  0  0  0
   -3.1162   -2.7374   -0.4915 C   0  0  0  0  0  0  0  0  0  0  0  0
   -1.3626   -0.9050   -2.3883 S   0  0  0  0  0  4  0  0  0  0  0  0
    0.2332   -0.0800   -3.1568 Cu  0  0  0  0  0  3  0  0  0  0  0  0
    0.9033   -0.5316   -4.8641 I   0  0  0  0  0  0  0  0  0  0  0  0
    0.9986    1.2954   -1.9271 S   0  0  0  0  0  4  0  0  0  0  0  0
    1.4146    0.3017   -0.3762 P   0  0  0  0  0  5  0  0  0  0  0  0
    2.6960   -0.8845   -0.8168 C   0  0  0  0  0  0  0  0  0  0  0  0
    2.3517   -2.2098   -1.0557 C   0  0  0  0  0  0  0  0  0  0  0  0
    3.4049   -3.0294   -1.3842 C   0  0  0  0  0  0  0  0  0  0  0  0
    4.7308   -2.6704   -1.4954 C   0  0  0  0  0  0  0  0  0  0  0  0
    4.9864   -1.3294   -1.2404 C   0  0  0  0  0  0  0  0  0  0  0  0
    4.0009   -0.4243   -0.9031 C   0  0  0  0  0  0  0  0  0  0  0  0
    2.1378    1.3866    0.8558 C   0  0  0  0  0  0  0  0  0  0  0  0
    2.1669    2.7691    0.8173 C   0  0  0  0  0  0  0  0  0  0  0  0
    2.7647    3.4622    1.8491 C   0  0  0  0  0  0  0  0  0  0  0  0
    3.3457    2.8457    2.9368 C   0  0  0  0  0  0  0  0  0  0  0  0
    3.2939    1.4661    2.9343 C   0  0  0  0  0  0  0  0  0  0  0  0
    2.7122    0.7079    1.9357 C   0  0  0  0  0  0  0  0  0  0  0  0
    0.0307   -0.5611    0.3405 C   0  0  0  0  0  0  0  0  0  0  0  0
   -3.6400    1.2230   -0.7322 C   0  0  0  0  0  0  0  0  0  0  0  0
   -4.2922    2.4311   -0.5840 C   0  0  0  0  0  0  0  0  0  0  0  0
   -4.2232    4.4322   -0.0019 H   0  0  0  0  0  0  0  0  0  0  0  0
   -1.7997    4.3575    0.6868 H   0  0  0  0  0  0  0  0  0  0  0  0
   -0.6466    2.1911    0.4162 H   0  0  0  0  0  0  0  0  0  0  0  0
   -2.7237   -0.6285    2.0941 H   0  0  0  0  0  0  0  0  0  0  0  0
   -4.2757   -2.3042    3.1001 H   0  0  0  0  0  0  0  0  0  0  0  0
   -5.0494   -4.2348    1.7556 H   0  0  0  0  0  0  0  0  0  0  0  0
   -4.2662   -4.4575   -0.5524 H   0  0  0  0  0  0  0  0  0  0  0  0
   -2.7722   -2.8384   -1.5107 H   0  0  0  0  0  0  0  0  0  0  0  0
   -2.4561   -0.3349   -3.0549 H   0  0  0  0  0  0  0  0  0  0  0  0
    2.1984    1.6306   -2.5504 H   0  0  0  0  0  0  0  0  0  0  0  0
    1.3405   -2.5702   -0.9897 H   0  0  0  0  0  0  0  0  0  0  0  0
    3.1679   -4.0777   -1.5781 H   0  0  0  0  0  0  0  0  0  0  0  0
    5.4932   -3.3902   -1.7606 H   0  0  0  0  0  0  0  0  0  0  0  0
    6.0295   -0.9968   -1.3170 H   0  0  0  0  0  0  0  0  0  0  0  0
    4.2821    0.5942   -0.7219 H   0  0  0  0  0  0  0  0  0  0  0  0
    1.7014    3.2072   -0.0507 H   0  0  0  0  0  0  0  0  0  0  0  0
    2.7711    4.5313    1.7901 H   0  0  0  0  0  0  0  0  0  0  0  0
    3.8097    3.3898    3.7372 H   0  0  0  0  0  0  0  0  0  0  0  0
    3.7423    0.9466    3.7768 H   0  0  0  0  0  0  0  0  0  0  0  0
    2.7292   -0.3638    2.0370 H   0  0  0  0  0  0  0  0  0  0  0  0
    0.2317   -1.6547    0.4575 H   0  0  0  0  0  0  0  0  0  0  0  0
   -0.1746   -0.2046    1.3678 H   0  0  0  0  0  0  0  0  0  0  0  0
   -4.1593    0.3599   -1.1266 H   0  0  0  0  0  0  0  0  0  0  0  0
   -5.3378    2.4534   -0.8839 H   0  0  0  0  0  0  0  0  0  0  0  0
  1  2  2  0
  2  3  1  0
  3  4  2  0
  4  5  1  0
  5  6  1  0
  6  7  2  0
  7  8  1  0
  8  9  2  0
  9 10  1  0
 10 11  2  0
  5 12  2  0
 12 13  1  0
 13 14  1  0
 13 15  1  0
 15 16  2  0
 16 17  1  0
 17 18  2  0
 18 19  1  0
 19 20  2  0
 20 21  1  0
 21 22  2  0
 16 23  1  0
 23 24  2  0
 24 25  1  0
 25 26  2  0
 26 27  1  0
 27 28  2  0
 16 29  1  0
  4 30  1  0
 30 31  2  0
 31  1  1  0
 29  5  1  0
 11  6  1  0
 22 17  1  0
 28 23  1  0
  1 32  1  0
  2 33  1  0
  3 34  1  0
  7 35  1  0
  8 36  1  0
  9 37  1  0
 10 38  1  0
 11 39  1  0
 12 40  1  0
 15 41  1  0
 18 42  1  0
 19 43  1  0
 20 44  1  0
 21 45  1  0
 22 46  1  0
 24 47  1  0
 25 48  1  0
 26 49  1  0
 27 50  1  0
 28 51  1  0
 29 52  1  0
 29 53  1  0
 30 54  1  0
 31 55  1  0
M  END
