
 OpenBabel09252514473D

 32 34  0  0  0  0  0  0  0  0999 V2000
    1.0466   -0.0318    0.0826 C   0  0  0  0  0  0  0  0  0  0  0  0
    0.5399   -0.7958   -1.1298 C   0  0  0  0  0  0  0  0  0  0  0  0
    1.0466   -2.2278   -1.0744 C   0  0  0  0  0  0  0  0  0  0  0  0
    0.1626   -3.2610   -1.0344 C   0  0  0  0  0  0  0  0  0  0  0  0
   -0.9801   -0.7958   -1.1298 C   0  0  0  0  0  0  0  0  0  0  0  0
   -1.4701    0.5891   -1.1835 N   0  0  0  0  0  0  0  0  0  0  0  0
   -1.1630    1.4079   -0.2613 N   0  0  0  0  0  0  0  0  0  0  0  0
   -0.4324    1.0295    0.7073 N   0  0  0  0  0  2  0  0  0  0  0  0
   -1.4867   -1.5598   -2.3423 C   0  0  0  0  0  0  0  0  0  0  0  0
   -1.3040   -2.8598   -2.5022 C   0  0  0  0  0  0  0  0  0  0  0  0
   -1.7644   -3.1687   -3.8809 C   0  0  0  0  0  0  0  0  0  0  0  0
   -2.1765   -2.0201   -4.3908 C   0  0  0  0  0  0  0  0  0  0  0  0
   -2.7490   -1.8250   -5.7853 C   0  0  0  0  0  0  0  0  0  0  0  0
   -2.0057   -1.0548   -3.4731 Fe  0  0  0  0  0  0  0  0  0  0  0  0
   -3.3434    0.2283   -2.5293 C   0  0  0  0  0  0  0  0  0  0  0  0
   -4.1268    0.9797   -1.9766 O   0  0  0  0  0  0  0  0  0  0  0  0
   -2.9551   -2.8914   -3.7009 C   0  0  0  0  0  0  0  0  0  0  0  0
   -3.5111   -3.9669   -3.8342 O   0  0  0  0  0  0  0  0  0  0  0  0
   -2.3946   -0.9257   -1.4339 C   0  0  0  0  0  0  0  0  0  0  0  0
   -2.6224   -0.8501   -0.2397 O   0  0  0  0  0  0  0  0  0  0  0  0
    0.6899   -0.5020    0.9751 H   0  0  0  0  0  0  0  0  0  0  0  0
    0.6899    0.9763    0.0435 H   0  0  0  0  0  0  0  0  0  0  0  0
    2.1166   -0.0318    0.0826 H   0  0  0  0  0  0  0  0  0  0  0  0
    0.8966   -0.3256   -2.0224 H   0  0  0  0  0  0  0  0  0  0  0  0
    2.0986   -2.4232   -1.0668 H   0  0  0  0  0  0  0  0  0  0  0  0
    0.5192   -4.2691   -0.9953 H   0  0  0  0  0  0  0  0  0  0  0  0
   -0.8894   -3.0656   -1.0419 H   0  0  0  0  0  0  0  0  0  0  0  0
   -1.3367   -1.2660   -0.2373 H   0  0  0  0  0  0  0  0  0  0  0  0
   -1.5030    2.3689   -0.2985 H   0  0  0  0  0  0  0  0  0  0  0  0
   -3.7437   -1.4378   -5.7115 H   0  0  0  0  0  0  0  0  0  0  0  0
   -2.1373   -1.1354   -6.3286 H   0  0  0  0  0  0  0  0  0  0  0  0
   -2.7689   -2.7643   -6.2973 H   0  0  0  0  0  0  0  0  0  0  0  0
  1  2  1  0  0  0  0
  1 21  1  0  0  0  0
  1 22  1  0  0  0  0
  1 23  1  0  0  0  0
  2  3  1  0  0  0  0
  2  5  1  0  0  0  0
  2 24  1  0  0  0  0
  3  4  2  0  0  0  0
  3 25  1  0  0  0  0
  4 26  1  0  0  0  0
  4 27  1  0  0  0  0
  5  6  1  0  0  0  0
  5  9  1  0  0  0  0
  5 28  1  0  0  0  0
  6  7  2  0  0  0  0
  7  8  2  0  0  0  0
  7 29  1  0  0  0  0
  9 10  2  0  0  0  0
  9 14  1  0  0  0  0
 10 11  1  0  0  0  0
 10 14  1  0  0  0  0
 11 12  2  0  0  0  0
 11 14  1  0  0  0  0
 12 13  1  0  0  0  0
 12 14  1  0  0  0  0
 13 30  1  0  0  0  0
 13 31  1  0  0  0  0
 13 32  1  0  0  0  0
 14 15  1  0  0  0  0
 14 17  1  0  0  0  0
 14 19  1  0  0  0  0
 15 16  3  0  0  0  0
 17 18  3  0  0  0  0
 19 20  3  0  0  0  0
M  END
$$$$
