
 OpenBabel09252519483D

 36 38  0  0  1  0  0  0  0  0999 V2000
    3.8028    2.4295    1.1301 H   0  0  0  0  0  0  0  0  0  0  0  0
    4.6241    1.8399    0.7798 C   0  0  0  0  0  0  0  0  0  0  0  0
    5.6211    2.2241    0.8364 H   0  0  0  0  0  0  0  0  0  0  0  0
    4.4006    0.6016    0.2626 C   0  0  0  0  0  0  0  0  0  0  0  0
    3.4036    0.2174    0.2061 H   0  0  0  0  0  0  0  0  0  0  0  0
    5.5672   -0.2361   -0.2350 C   0  0  1  0  0  0  0  0  0  0  0  0
    6.0710    0.2857   -1.0217 H   0  0  0  0  0  0  0  0  0  0  0  0
    6.5363   -0.4855    0.9092 C   0  0  0  0  0  0  0  0  0  0  0  0
    6.0325   -1.0072    1.6959 H   0  0  0  0  0  0  0  0  0  0  0  0
    7.3576   -1.0751    0.5589 H   0  0  0  0  0  0  0  0  0  0  0  0
    6.9009    0.4504    1.2782 H   0  0  0  0  0  0  0  0  0  0  0  0
    5.0493   -1.5655   -0.7592 C   0  0  1  0  0  0  0  0  0  0  0  0
    4.5455   -2.0872    0.0276 H   0  0  0  0  0  0  0  0  0  0  0  0
    4.1121   -1.3243   -1.8657 N   0  0  0  0  0  0  0  0  0  0  0  0
    3.0590   -0.6405   -1.6690 N   0  0  0  0  0  4  0  0  0  0  0  0
    2.0060    0.0433   -1.4722 N   0  0  0  0  0  0  0  0  0  0  0  0
    6.2425   -2.3750   -1.2400 C   0  0  2  0  0  0  0  0  0  0  0  0
    5.1725   -2.3750   -1.2400 H   0  0  0  0  0  0  0  0  0  0  0  0
    7.0129   -2.4018   -0.1655 C   0  0  1  0  0  0  0  0  0  0  0  0
    7.5604   -1.4836   -0.1205 H   0  0  0  0  0  0  0  0  0  0  0  0
    8.4115   -2.3897   -0.6673 C   0  0  1  0  0  0  0  0  0  0  0  0
    7.9091   -2.0515   -1.5494 H   0  0  0  0  0  0  0  0  0  0  0  0
    8.3225   -2.3624   -1.9866 C   0  0  2  0  0  0  0  0  0  0  0  0
    8.5518   -3.3604   -1.6762 H   0  0  0  0  0  0  0  0  0  0  0  0
    9.4956   -2.3497   -2.9531 C   0  0  0  0  0  0  0  0  0  0  0  0
    9.4449   -3.2104   -3.5868 H   0  0  0  0  0  0  0  0  0  0  0  0
    9.4552   -1.4635   -3.5514 H   0  0  0  0  0  0  0  0  0  0  0  0
   10.4123   -2.3663   -2.4016 H   0  0  0  0  0  0  0  0  0  0  0  0
    7.0248   -2.3478   -2.3311 Fe  0  0  0  0  0  0  0  0  0  0  0  0
    6.4543   -1.5283   -4.1558 C   0  0  0  0  0  0  0  0  0  0  0  0
    6.1203   -1.0483   -5.2244 O   0  0  0  0  0  0  0  0  0  0  0  0
    7.3792   -1.1274   -3.9778 C   0  0  0  0  0  0  0  0  0  0  0  0
    7.5868   -0.4128   -4.9421 O   0  0  0  0  0  0  0  0  0  0  0  0
    5.6551   -2.3739   -0.7660 C   0  0  0  0  0  0  0  0  0  0  0  0
    4.8530   -2.3893    0.1506 O   0  0  0  0  0  0  0  0  0  0  0  0
    1.0986   -0.3234   -1.7597 H   0  0  0  0  0  0  0  0  0  0  0  0
  1  2  1  0  0  0  0
  2  3  1  0  0  0  0
  2  4  2  0  0  0  0
  4  5  1  0  0  0  0
  4  6  1  0  0  0  0
  6  7  1  6  0  0  0
  6  8  1  0  0  0  0
  6 12  1  0  0  0  0
  8  9  1  0  0  0  0
  8 10  1  0  0  0  0
  8 11  1  0  0  0  0
 12 13  1  1  0  0  0
 12 14  1  0  0  0  0
 14 15  2  0  0  0  0
 15 16  2  0  0  0  0
 16 36  1  0  0  0  0
 17 19  2  0  0  0  0
 17 29  1  0  0  0  0
 17 18  1  6  0  0  0
 17 12  1  0  0  0  0
 19 20  1  1  0  0  0
 19 21  1  0  0  0  0
 19 29  1  0  0  0  0
 21 22  1  1  0  0  0
 21 23  2  0  0  0  0
 21 29  1  0  0  0  0
 23 24  1  6  0  0  0
 23 25  1  0  0  0  0
 23 29  1  0  0  0  0
 25 26  1  0  0  0  0
 25 27  1  0  0  0  0
 25 28  1  0  0  0  0
 29 30  1  0  0  0  0
 29 32  1  0  0  0  0
 29 34  1  0  0  0  0
 30 31  3  0  0  0  0
 32 33  3  0  0  0  0
 34 35  3  0  0  0  0
M  END
$$$$
