
     RDKit          3D

 35 38  0  0  0  0  0  0  0  0999 V2000
   -5.6731    1.5602    1.3349 F   0  0  0  0  0  0  0  0  0  0  0  0
   -4.6515    1.6509    0.4391 C   0  0  0  0  0  0  0  0  0  0  0  0
   -5.2336    1.7726   -0.7852 F   0  0  0  0  0  0  0  0  0  0  0  0
   -4.0467    2.8470    0.6851 F   0  0  0  0  0  0  0  0  0  0  0  0
   -3.6930    0.4874    0.5042 C   0  0  0  0  0  0  0  0  0  0  0  0
   -4.1188   -0.7616    0.9666 C   0  0  0  0  0  0  0  0  0  0  0  0
   -3.2288   -1.8289    1.0010 C   0  0  0  0  0  0  0  0  0  0  0  0
   -1.9105   -1.6607    0.5646 C   0  0  0  0  0  0  0  0  0  0  0  0
   -1.4492   -0.4301    0.0736 C   0  0  0  0  0  0  0  0  0  0  0  0
   -2.3629    0.6386    0.0602 C   0  0  0  0  0  0  0  0  0  0  0  0
   -0.0783   -0.2641   -0.3518 N   0  0  0  0  0  0  0  0  0  0  0  0
    0.4112    1.0975   -0.5932 C   0  0  0  0  0  0  0  0  0  0  0  0
    1.9334    1.2969   -0.7147 C   0  0  0  0  0  0  0  0  0  0  0  0
    2.1657    2.9272   -1.4130 Cl  0  0  0  0  0  0  0  0  0  0  0  0
    2.5689    1.2653    0.5835 O   0  0  0  0  0  0  0  0  0  0  0  0
    3.5461    0.2043    0.5135 C   0  0  0  0  0  0  0  0  0  0  0  0
    4.8297    0.2916    1.9226 Br  0  0  0  0  0  0  0  0  0  0  0  0
    2.7509   -1.1091    0.5594 C   0  0  0  0  0  0  0  0  0  0  0  0
    2.1573   -1.1452   -0.8697 C   0  0  0  0  0  0  0  0  0  0  0  0
    2.6538    0.1824   -1.4848 C   0  0  0  0  0  0  0  0  0  0  0  0
    4.0785    0.1852   -0.9139 C   0  0  0  0  0  0  0  0  0  0  0  0
    5.4076    1.6632   -1.5533 I   0  0  0  0  0  0  0  0  0  0  0  0
    0.6606   -1.3444   -0.8304 C   0  0  0  0  0  0  0  0  0  0  0  0
    0.2084   -2.4432   -1.1464 O   0  0  0  0  0  0  0  0  0  0  0  0
   -5.1437   -0.9070    1.3048 H   0  0  0  0  0  0  0  0  0  0  0  0
   -3.5538   -2.7993    1.3697 H   0  0  0  0  0  0  0  0  0  0  0  0
   -1.2515   -2.5222    0.6410 H   0  0  0  0  0  0  0  0  0  0  0  0
   -2.0785    1.6182   -0.3176 H   0  0  0  0  0  0  0  0  0  0  0  0
    0.0606    1.7309    0.2314 H   0  0  0  0  0  0  0  0  0  0  0  0
   -0.0688    1.4143   -1.5289 H   0  0  0  0  0  0  0  0  0  0  0  0
    3.3954   -1.9830    0.7139 H   0  0  0  0  0  0  0  0  0  0  0  0
    1.9852   -1.1045    1.3435 H   0  0  0  0  0  0  0  0  0  0  0  0
    2.5912   -1.9871   -1.4265 H   0  0  0  0  0  0  0  0  0  0  0  0
    2.5496    0.2230   -2.5717 H   0  0  0  0  0  0  0  0  0  0  0  0
    4.5890   -0.7662   -1.1231 H   0  0  0  0  0  0  0  0  0  0  0  0
  1  2  1  0
  2  3  1  0
  2  4  1  0
  2  5  1  0
  5  6  2  0
  6  7  1  0
  7  8  2  0
  8  9  1  0
  9 10  2  0
  9 11  1  0
 11 12  1  0
 12 13  1  0
 13 14  1  0
 13 15  1  0
 15 16  1  0
 16 17  1  0
 16 18  1  0
 18 19  1  0
 19 20  1  0
 20 21  1  0
 21 22  1  0
 19 23  1  0
 23 24  2  0
 10  5  1  0
 23 11  1  0
 20 13  1  0
 21 16  1  0
  6 25  1  0
  7 26  1  0
  8 27  1  0
 10 28  1  0
 12 29  1  0
 12 30  1  0
 18 31  1  0
 18 32  1  0
 19 33  1  0
 20 34  1  0
 21 35  1  0
M  END
