
 OpenBabel09252519063D

 48 56  0  0  1  0  0  0  0  0999 V2000
    1.0766    0.0637   -0.0089 H   0  0  0  0  0  0  0  0  0  0  0  0
    2.1466    0.0637   -0.0089 C   0  0  0  0  0  3  0  0  0  0  0  0
    2.6532    1.4786    0.2185 C   0  0  0  0  0  3  0  0  0  0  0  0
    3.7232    1.4786    0.2185 H   0  0  0  0  0  0  0  0  0  0  0  0
    2.1466    2.3830   -0.8932 C   0  0  0  0  0  3  0  0  0  0  0  0
    2.8638    3.7102   -0.7587 C   0  0  0  0  0  3  0  0  0  0  0  0
    4.2590    3.5386   -1.3761 C   0  0  0  0  0  3  0  0  0  0  0  0
    4.9936    2.4093   -0.6722 C   0  0  0  0  0  3  0  0  0  0  0  0
    4.4411    1.4999   -0.7845 H   0  0  0  0  0  0  0  0  0  0  0  0
    6.3740    2.2426   -1.2862 C   0  0  0  0  0  3  0  0  0  0  0  0
    6.9265    3.1520   -1.1739 H   0  0  0  0  0  0  0  0  0  0  0  0
    7.1086    1.1133   -0.5823 C   0  0  0  0  0  3  0  0  0  0  0  0
    8.0713    1.2534   -0.1368 H   0  0  0  0  0  0  0  0  0  0  0  0
    2.9868    4.0891    0.7081 C   0  0  0  0  0  3  0  0  0  0  0  0
    2.6532   -0.4468   -1.3480 C   0  0  0  0  0  3  0  0  0  0  0  0
    3.5018   -1.0951   -1.4159 H   0  0  0  0  0  0  0  0  0  0  0  0
    4.1037    3.2038   -2.8623 Ir  0  0  0  0  0  0  0  0  0  0  0  0
    2.5138    2.0579   -4.2990 Cl  0  0  0  0  0  0  0  0  0  0  0  0
    3.1978    2.0230   -3.0550 C   0  0  0  0  0  0  0  0  0  0  0  0
    2.8519    1.1637   -2.5195 H   0  0  0  0  0  0  0  0  0  0  0  0
    3.7037    2.5475   -3.8385 H   0  0  0  0  0  0  0  0  0  0  0  0
    2.2976    1.6474   -2.1628 C   0  0  1  0  0  0  0  0  0  0  0  0
    1.2961    1.6541   -2.5395 H   0  0  0  0  0  0  0  0  0  0  0  0
    5.7495    5.2535   -4.2568 C   0  0  2  0  0  0  0  0  0  0  0  0
    6.5117    6.0889   -5.2725 C   0  0  0  0  0  0  0  0  0  0  0  0
    6.0642    7.0581   -5.3450 H   0  0  0  0  0  0  0  0  0  0  0  0
    7.5302    6.1888   -4.9601 H   0  0  0  0  0  0  0  0  0  0  0  0
    6.4772    5.6078   -6.2276 H   0  0  0  0  0  0  0  0  0  0  0  0
    4.3789    5.6470   -3.6978 C   0  0  2  0  0  0  0  0  0  0  0  0
    4.2097    7.1574   -3.7207 C   0  0  0  0  0  0  0  0  0  0  0  0
    4.0109    7.4793   -4.7216 H   0  0  0  0  0  0  0  0  0  0  0  0
    3.3922    7.4338   -3.0882 H   0  0  0  0  0  0  0  0  0  0  0  0
    5.1066    7.6224   -3.3681 H   0  0  0  0  0  0  0  0  0  0  0  0
    3.5281    4.4019   -3.5862 C   0  0  2  0  0  0  0  0  0  0  0  0
    2.1290    4.8680   -3.9546 C   0  0  0  0  0  0  0  0  0  0  0  0
    1.6439    5.2616   -3.0860 H   0  0  0  0  0  0  0  0  0  0  0  0
    2.1928    5.6296   -4.7035 H   0  0  0  0  0  0  0  0  0  0  0  0
    1.5657    4.0411   -4.3339 H   0  0  0  0  0  0  0  0  0  0  0  0
    5.4829    2.8961   -3.4569 C   0  0  2  0  0  0  0  0  0  0  0  0
    6.3282    1.6660   -3.7445 C   0  0  0  0  0  0  0  0  0  0  0  0
    7.1213    1.6036   -3.0290 H   0  0  0  0  0  0  0  0  0  0  0  0
    5.7178    0.7898   -3.6778 H   0  0  0  0  0  0  0  0  0  0  0  0
    6.7409    1.7390   -4.7290 H   0  0  0  0  0  0  0  0  0  0  0  0
    6.3551    4.1501   -3.3871 C   0  0  2  0  0  0  0  0  0  0  0  0
    7.7964    4.5188   -3.0753 C   0  0  0  0  0  0  0  0  0  0  0  0
    8.3989    3.6345   -3.0780 H   0  0  0  0  0  0  0  0  0  0  0  0
    8.1590    5.1996   -3.8169 H   0  0  0  0  0  0  0  0  0  0  0  0
    7.8460    4.9813   -2.1118 H   0  0  0  0  0  0  0  0  0  0  0  0
  1  2  1  0  0  0  0
  2  3  1  0  0  0  0
  2 15  1  0  0  0  0
  3  5  1  0  0  0  0
  3  4  1  0  0  0  0
  5  6  1  0  0  0  0
  5 22  1  0  0  0  0
  6  7  1  0  0  0  0
  6 14  1  0  0  0  0
  7  8  1  0  0  0  0
  7 17  1  0  0  0  0
  8 10  1  0  0  0  0
  8  9  1  0  0  0  0
 10 12  1  0  0  0  0
 10 11  1  0  0  0  0
 12 14  1  0  0  0  0
 12 13  1  0  0  0  0
 14 15  1  0  0  0  0
 15 16  1  0  0  0  0
 17 19  1  0  0  0  0
 17 22  1  0  0  0  0
 17 24  1  0  0  0  0
 17 29  1  0  0  0  0
 17 34  1  0  0  0  0
 17 39  1  0  0  0  0
 17 44  1  0  0  0  0
 17 18  1  0  0  0  0
 19 22  2  0  0  0  0
 19 20  1  0  0  0  0
 19 21  1  0  0  0  0
 22 23  1  6  0  0  0
 24 29  1  0  0  0  0
 24 44  1  0  0  0  0
 24 25  1  1  0  0  0
 25 26  1  0  0  0  0
 25 27  1  0  0  0  0
 25 28  1  0  0  0  0
 29 34  1  0  0  0  0
 29 30  1  1  0  0  0
 30 31  1  0  0  0  0
 30 32  1  0  0  0  0
 30 33  1  0  0  0  0
 34 39  1  0  0  0  0
 34 35  1  6  0  0  0
 35 36  1  0  0  0  0
 35 37  1  0  0  0  0
 35 38  1  0  0  0  0
 39 44  1  0  0  0  0
 39 40  1  6  0  0  0
 40 41  1  0  0  0  0
 40 42  1  0  0  0  0
 40 43  1  0  0  0  0
 44 45  1  1  0  0  0
 45 46  1  0  0  0  0
 45 47  1  0  0  0  0
 45 48  1  0  0  0  0
M  END
$$$$
