
 OpenBabel09252518573D

 47 52  0  0  0  0  0  0  0  0999 V2000
    1.0843    0.0406    0.0352 H   0  0  0  0  0  0  0  0  0  0  0  0
    2.1543    0.0406    0.0352 C   0  0  0  0  0  0  0  0  0  0  0  0
    2.8122   -0.0113   -1.1030 N   0  0  0  0  0  4  0  0  0  0  0  0
    2.1720   -0.0739   -2.4910 C   0  0  0  0  0  0  0  0  0  0  0  0
    2.3591    0.8420   -3.0117 H   0  0  0  0  0  0  0  0  0  0  0  0
    2.5927   -0.8894   -3.0413 H   0  0  0  0  0  0  0  0  0  0  0  0
    0.6631   -0.2799   -2.3476 C   0  0  0  0  0  0  0  0  0  0  0  0
    0.4387   -0.5928   -1.3493 H   0  0  0  0  0  0  0  0  0  0  0  0
    0.1561    0.6392   -2.5553 H   0  0  0  0  0  0  0  0  0  0  0  0
    0.1995   -1.3531   -3.3356 C   0  0  0  0  0  0  0  0  0  0  0  0
   -0.8264   -1.1854   -3.5890 H   0  0  0  0  0  0  0  0  0  0  0  0
    0.7980   -1.3049   -4.2213 H   0  0  0  0  0  0  0  0  0  0  0  0
    0.3452   -2.7137   -2.7041 N   0  0  0  0  0  4  0  0  0  0  0  0
    1.1207   -3.6136   -3.2567 C   0  0  0  0  0  0  0  0  0  0  0  0
    1.8740   -3.2853   -4.5355 C   0  0  0  0  0  0  0  0  0  0  0  0
    2.9260   -3.3798   -4.3640 H   0  0  0  0  0  0  0  0  0  0  0  0
    1.5765   -3.9626   -5.3086 H   0  0  0  0  0  0  0  0  0  0  0  0
    1.6499   -2.2825   -4.8340 H   0  0  0  0  0  0  0  0  0  0  0  0
    1.2660   -4.9734   -2.6253 C   0  0  0  0  0  3  0  0  0  0  0  0
    2.7158   -5.3873   -2.6510 C   0  0  0  0  0  3  0  0  0  0  0  0
    3.1823   -4.8297   -3.4361 H   0  0  0  0  0  0  0  0  0  0  0  0
    3.5716   -5.2099   -1.4237 C   0  0  0  0  0  3  0  0  0  0  0  0
    4.1349   -6.1028   -1.2494 H   0  0  0  0  0  0  0  0  0  0  0  0
    4.4811   -4.0948   -1.6258 C   0  0  0  0  0  3  0  0  0  0  0  0
    4.0941   -3.5040   -2.4295 H   0  0  0  0  0  0  0  0  0  0  0  0
    4.6819   -3.2761   -0.5814 C   0  0  0  0  0  3  0  0  0  0  0  0
    3.7244   -2.8856   -0.3065 H   0  0  0  0  0  0  0  0  0  0  0  0
    5.6103   -2.0971   -0.7164 C   0  0  0  0  0  3  0  0  0  0  0  0
    4.9461   -0.8542   -0.1205 O   0  0  0  0  0  0  0  0  0  0  0  0
    4.3356   -0.0177   -1.2435 Cu  0  0  0  0  0  0  0  0  0  0  0  0
    5.8311    1.1442   -1.8214 O   0  0  0  0  0  0  0  0  0  0  0  0
    6.5882    1.5404   -0.6873 C   0  0  0  0  0  3  0  0  0  0  0  0
    7.1312    0.2794   -0.0132 C   0  0  0  0  0  3  0  0  0  0  0  0
    7.7173    0.5546    0.8386 H   0  0  0  0  0  0  0  0  0  0  0  0
    5.9643   -0.6027    0.4342 C   0  0  0  0  0  3  0  0  0  0  0  0
    6.3444   -1.4846    0.9061 H   0  0  0  0  0  0  0  0  0  0  0  0
    5.0916    0.1699    1.4248 C   0  0  0  0  0  3  0  0  0  0  0  0
    3.9247   -0.7123    1.8722 C   0  0  0  0  0  3  0  0  0  0  0  0
    4.3048   -1.5942    2.3441 H   0  0  0  0  0  0  0  0  0  0  0  0
    3.0520    0.0603    2.8629 C   0  0  0  0  0  3  0  0  0  0  0  0
    3.6379    0.3356    3.7148 H   0  0  0  0  0  0  0  0  0  0  0  0
    2.5082    1.3212    2.1894 C   0  0  0  0  0  3  0  0  0  0  0  0
    1.8984    1.8615    2.8831 H   0  0  0  0  0  0  0  0  0  0  0  0
    3.6759    2.2033    1.7414 C   0  0  0  0  0  3  0  0  0  0  0  0
    4.2618    2.4789    2.5933 H   0  0  0  0  0  0  0  0  0  0  0  0
    4.5486    1.4308    0.7508 C   0  0  0  0  0  3  0  0  0  0  0  0
    5.7155    2.3129    0.3034 C   0  0  0  0  0  3  0  0  0  0  0  0
  1  2  1  0  0  0  0
  2  3  2  0  0  0  0
  2 47  1  0  0  0  0
  3  4  1  0  0  0  0
  3 30  1  0  0  0  0
  4  5  1  0  0  0  0
  4  6  1  0  0  0  0
  4  7  1  0  0  0  0
  7  8  1  0  0  0  0
  7  9  1  0  0  0  0
  7 10  1  0  0  0  0
 10 11  1  0  0  0  0
 10 12  1  0  0  0  0
 10 13  1  0  0  0  0
 13 14  2  0  0  0  0
 13 30  1  0  0  0  0
 14 15  1  0  0  0  0
 14 19  1  0  0  0  0
 15 16  1  0  0  0  0
 15 17  1  0  0  0  0
 15 18  1  0  0  0  0
 19 20  1  0  0  0  0
 19 28  1  0  0  0  0
 20 21  1  0  0  0  0
 20 22  1  0  0  0  0
 22 23  1  0  0  0  0
 22 24  1  0  0  0  0
 24 25  1  0  0  0  0
 24 26  1  0  0  0  0
 26 27  1  0  0  0  0
 26 28  1  0  0  0  0
 28 29  1  0  0  0  0
 29 30  1  0  0  0  0
 30 31  1  0  0  0  0
 31 32  1  0  0  0  0
 32 33  1  0  0  0  0
 32 47  1  0  0  0  0
 33 34  1  0  0  0  0
 33 35  1  0  0  0  0
 35 36  1  0  0  0  0
 35 37  1  0  0  0  0
 37 38  1  0  0  0  0
 37 46  1  0  0  0  0
 38 39  1  0  0  0  0
 38 40  1  0  0  0  0
 40 41  1  0  0  0  0
 40 42  1  0  0  0  0
 42 43  1  0  0  0  0
 42 44  1  0  0  0  0
 44 45  1  0  0  0  0
 44 46  1  0  0  0  0
 46 47  1  0  0  0  0
M  END
$$$$
