
     RDKit          3D

 28 28  0  0  0  0  0  0  0  0999 V2000
   -2.8223   -1.7873    0.1893 C   0  0  0  0  0  0  0  0  0  0  0  0
   -2.6714   -0.3866   -0.3927 C   0  0  0  0  0  0  0  0  0  0  0  0
   -1.9726    0.5739    0.5698 C   0  0  0  0  0  0  0  0  0  0  0  0
   -0.4970    0.5644    0.5740 C   0  0  0  0  0  0  0  0  0  0  0  0
    0.3104   -0.2249   -0.1562 C   0  0  0  0  0  0  0  0  0  0  0  0
    1.7791   -0.1728   -0.0788 C   0  0  0  0  0  0  0  0  0  0  0  0
    2.5002   -1.3760   -0.1004 C   0  0  0  0  0  0  0  0  0  0  0  0
    3.8964   -1.3663   -0.0563 C   0  0  0  0  0  0  0  0  0  0  0  0
    4.5717   -0.1536   -0.0020 C   0  0  0  0  0  0  0  0  0  0  0  0
    5.9103   -0.1447    0.0382 F   0  0  0  0  0  0  0  0  0  0  0  0
    3.8780    1.0498    0.0047 C   0  0  0  0  0  0  0  0  0  0  0  0
    2.4816    1.0414   -0.0392 C   0  0  0  0  0  0  0  0  0  0  0  0
   -2.6867    1.4131    1.3704 C   0  0  0  0  0  0  0  0  0  0  0  0
   -2.0666    2.3381    2.2627 C   0  0  0  0  0  0  0  0  0  0  0  0
   -1.5486    3.0890    2.9805 N   0  0  0  0  0  0  0  0  0  0  0  0
   -4.1140    1.4089    1.3770 C   0  0  0  0  0  0  0  0  0  0  0  0
   -5.2744    1.3934    1.3733 N   0  0  0  0  0  0  0  0  0  0  0  0
   -3.3319   -2.4383   -0.5285 H   0  0  0  0  0  0  0  0  0  0  0  0
   -3.4172   -1.7710    1.1086 H   0  0  0  0  0  0  0  0  0  0  0  0
   -1.8529   -2.2390    0.4209 H   0  0  0  0  0  0  0  0  0  0  0  0
   -2.1407   -0.4305   -1.3510 H   0  0  0  0  0  0  0  0  0  0  0  0
   -3.6674   -0.0186   -0.6663 H   0  0  0  0  0  0  0  0  0  0  0  0
   -0.0082    1.2620    1.2558 H   0  0  0  0  0  0  0  0  0  0  0  0
   -0.0753   -0.9767   -0.8380 H   0  0  0  0  0  0  0  0  0  0  0  0
    1.9814   -2.3313   -0.1423 H   0  0  0  0  0  0  0  0  0  0  0  0
    4.4588   -2.2944   -0.0649 H   0  0  0  0  0  0  0  0  0  0  0  0
    4.4261    1.9860    0.0390 H   0  0  0  0  0  0  0  0  0  0  0  0
    1.9532    1.9919   -0.0519 H   0  0  0  0  0  0  0  0  0  0  0  0
  1  2  1  0
  2  3  1  0
  3  4  1  0
  4  5  2  3
  5  6  1  0
  6  7  2  0
  7  8  1  0
  8  9  2  0
  9 10  1  0
  9 11  1  0
 11 12  2  0
  3 13  2  3
 13 14  1  0
 14 15  3  0
 13 16  1  0
 16 17  3  0
 12  6  1  0
  1 18  1  0
  1 19  1  0
  1 20  1  0
  2 21  1  0
  2 22  1  0
  4 23  1  0
  5 24  1  0
  7 25  1  0
  8 26  1  0
 11 27  1  0
 12 28  1  0
M  END
