
 OpenBabel09252514383D

 53 57  0  0  0  0  0  0  0  0999 V2000
    1.0784   -0.0577   -0.0230 I   0  0  0  0  0  0  0  0  0  0  0  0
    3.7884   -0.0577   -0.0230 Cu  0  0  0  0  0  0  0  0  0  0  0  0
    4.4819    1.1451   -0.0225 S   0  0  0  0  0  3  0  0  0  0  0  0
    5.7489    1.1944    0.3231 P   0  0  0  0  0  0  0  0  0  0  0  0
    6.5071   -0.0355    0.7312 C   0  0  0  0  0  0  0  0  0  0  0  0
    5.7708   -1.2794    0.3270 P   0  0  0  0  0  0  0  0  0  0  0  0
    4.4708   -1.2413   -0.0234 S   0  0  0  0  0  3  0  0  0  0  0  0
    6.2453   -0.8437   -1.3859 C   0  0  0  0  0  0  0  0  0  0  0  0
    6.9715   -1.7363   -2.1570 C   0  0  0  0  0  0  0  0  0  0  0  0
    7.4384   -1.1923   -3.3768 C   0  0  0  0  0  0  0  0  0  0  0  0
    6.9642   -0.0946   -3.9375 C   0  0  0  0  0  0  0  0  0  0  0  0
    6.1973    0.7116   -3.1429 C   0  0  0  0  0  0  0  0  0  0  0  0
    5.8095    0.3053   -1.8890 C   0  0  0  0  0  0  0  0  0  0  0  0
    5.4774    0.0414    1.5592 C   0  0  0  0  0  0  0  0  0  0  0  0
    6.2462    1.1936    1.5581 C   0  0  0  0  0  0  0  0  0  0  0  0
    6.2235    1.8990    2.7845 C   0  0  0  0  0  0  0  0  0  0  0  0
    5.3139    1.7328    3.7274 C   0  0  0  0  0  0  0  0  0  0  0  0
    4.5401    0.6094    3.6346 C   0  0  0  0  0  0  0  0  0  0  0  0
    4.6005   -0.2007    2.5265 C   0  0  0  0  0  0  0  0  0  0  0  0
    4.8934    1.2039    1.9408 C   0  0  0  0  0  0  0  0  0  0  0  0
    3.5126    1.1023    1.9798 C   0  0  0  0  0  0  0  0  0  0  0  0
    2.9504    1.4123    3.2407 C   0  0  0  0  0  0  0  0  0  0  0  0
    3.6260    1.4424    4.3750 C   0  0  0  0  0  0  0  0  0  0  0  0
    4.9889    1.4729    4.2704 C   0  0  0  0  0  0  0  0  0  0  0  0
    5.6082    1.3080    3.0550 C   0  0  0  0  0  0  0  0  0  0  0  0
    7.3265    2.0986    0.1170 C   0  0  0  0  0  0  0  0  0  0  0  0
    7.5639    3.2330    0.8755 C   0  0  0  0  0  0  0  0  0  0  0  0
    8.6650    4.0012    0.4289 C   0  0  0  0  0  0  0  0  0  0  0  0
    9.6122    3.5551   -0.3760 C   0  0  0  0  0  0  0  0  0  0  0  0
    9.3442    2.3933   -1.0452 C   0  0  0  0  0  0  0  0  0  0  0  0
    8.2222    1.6544   -0.7569 C   0  0  0  0  0  0  0  0  0  0  0  0
    6.6137   -0.0329    1.7959 H   0  0  0  0  0  0  0  0  0  0  0  0
    7.4671   -0.0278    0.2586 H   0  0  0  0  0  0  0  0  0  0  0  0
    7.1621   -2.7456   -1.8573 H   0  0  0  0  0  0  0  0  0  0  0  0
    8.2308   -1.7059   -3.8800 H   0  0  0  0  0  0  0  0  0  0  0  0
    7.1692    0.1506   -4.9586 H   0  0  0  0  0  0  0  0  0  0  0  0
    5.8949    1.6728   -3.5028 H   0  0  0  0  0  0  0  0  0  0  0  0
    5.1503    0.9203   -1.3127 H   0  0  0  0  0  0  0  0  0  0  0  0
    6.8063    1.5206    0.7071 H   0  0  0  0  0  0  0  0  0  0  0  0
    6.9970    2.6171    2.9601 H   0  0  0  0  0  0  0  0  0  0  0  0
    5.1893    2.4393    4.5213 H   0  0  0  0  0  0  0  0  0  0  0  0
    3.8779    0.3576    4.4365 H   0  0  0  0  0  0  0  0  0  0  0  0
    3.9349   -1.0343    2.4423 H   0  0  0  0  0  0  0  0  0  0  0  0
    2.9244    0.8155    1.1332 H   0  0  0  0  0  0  0  0  0  0  0  0
    1.9051    1.6380    3.2777 H   0  0  0  0  0  0  0  0  0  0  0  0
    3.1333    1.4428    5.3248 H   0  0  0  0  0  0  0  0  0  0  0  0
    5.5818    1.6274    5.1476 H   0  0  0  0  0  0  0  0  0  0  0  0
    6.6762    1.2631    3.0059 H   0  0  0  0  0  0  0  0  0  0  0  0
    6.9687    3.5038    1.7224 H   0  0  0  0  0  0  0  0  0  0  0  0
    8.7351    5.0140    0.7668 H   0  0  0  0  0  0  0  0  0  0  0  0
   10.5395    4.0749   -0.4979 H   0  0  0  0  0  0  0  0  0  0  0  0
   10.0179    2.0546   -1.8044 H   0  0  0  0  0  0  0  0  0  0  0  0
    8.0689    0.7126   -1.2410 H   0  0  0  0  0  0  0  0  0  0  0  0
  1  2  1  0  0  0  0
  2  3  1  0  0  0  0
  2  7  1  0  0  0  0
  3  4  2  0  0  0  0
  4  5  1  0  0  0  0
  4 20  1  0  0  0  0
  4 26  1  0  0  0  0
  5  6  1  0  0  0  0
  5 32  1  0  0  0  0
  5 33  1  0  0  0  0
  6  7  2  0  0  0  0
  6  8  1  0  0  0  0
  6 14  1  0  0  0  0
  8  9  1  0  0  0  0
  8 13  2  0  0  0  0
  9 10  2  0  0  0  0
  9 34  1  0  0  0  0
 10 11  1  0  0  0  0
 10 35  1  0  0  0  0
 11 12  2  0  0  0  0
 11 36  1  0  0  0  0
 12 13  1  0  0  0  0
 12 37  1  0  0  0  0
 13 38  1  0  0  0  0
 14 15  1  0  0  0  0
 14 19  2  0  0  0  0
 15 16  2  0  0  0  0
 15 39  1  0  0  0  0
 16 17  1  0  0  0  0
 16 40  1  0  0  0  0
 17 18  2  0  0  0  0
 17 41  1  0  0  0  0
 18 19  1  0  0  0  0
 18 42  1  0  0  0  0
 19 43  1  0  0  0  0
 20 21  1  0  0  0  0
 20 25  2  0  0  0  0
 21 22  2  0  0  0  0
 21 44  1  0  0  0  0
 22 23  1  0  0  0  0
 22 45  1  0  0  0  0
 23 24  2  0  0  0  0
 23 46  1  0  0  0  0
 24 25  1  0  0  0  0
 24 47  1  0  0  0  0
 25 48  1  0  0  0  0
 26 27  1  0  0  0  0
 26 31  2  0  0  0  0
 27 28  2  0  0  0  0
 27 49  1  0  0  0  0
 28 29  1  0  0  0  0
 28 50  1  0  0  0  0
 29 30  2  0  0  0  0
 29 51  1  0  0  0  0
 30 31  1  0  0  0  0
 30 52  1  0  0  0  0
 31 53  1  0  0  0  0
M  END
$$$$
