
 OpenBabel08122501173D

 71 77  0  0  0  0  0  0  0  0999 V2000
    0.9640   -0.0768    0.0530 C   0  0  0  0  0  0  0  0  0  0  0  0
    0.3607    0.6303   -1.5001 S   0  0  0  0  0  0  0  0  0  0  0  0
   -1.4493    0.6303   -1.5001 C   0  0  0  0  0  0  0  0  0  0  0  0
    0.8708    2.0666   -1.6389 O   0  0  0  0  0  0  0  0  0  0  0  0
    0.2379    3.4833   -3.7499 U   0  3  0  0  0  0  0  0  0  0  0  0
   -0.4173    1.3570   -5.1333 O   0  0  0  0  0  0  0  0  0  0  0  0
   -1.7691    0.9237   -5.1718 C   0  0  0  0  0  0  0  0  0  0  0  0
   -2.0869   -0.1077   -5.8429 O   0  0  0  0  0  0  0  0  0  0  0  0
   -0.8631   -2.6022   -1.8080 C   0  0  0  0  0  0  0  0  0  0  0  0
    0.2428   -1.7049   -2.1726 N   0  0  0  0  0  0  0  0  0  0  0  0
    1.2188   -1.1524   -1.1332 C   0  0  0  0  0  0  0  0  0  0  0  0
    0.5403   -0.0410   -0.3306 C   0  0  0  0  0  0  0  0  0  0  0  0
    1.3713    1.2393   -0.4229 N   0  0  0  0  0  4  0  0  0  0  0  0
    0.8975    2.0764   -1.6128 C   0  0  0  0  0  0  0  0  0  0  0  0
    2.0720    2.3282   -2.5617 C   0  0  0  0  0  0  0  0  0  0  0  0
    1.5532    2.8395   -3.9063 N   0  0  0  0  0  0  0  0  0  0  0  0
    1.4886    1.7128   -4.9381 C   0  0  0  0  0  0  0  0  0  0  0  0
    0.7758    0.4949   -4.3491 C   0  0  0  0  0  0  0  0  0  0  0  0
    0.9695   -0.7056   -5.2784 N   0  0  0  0  0  0  0  0  0  0  0  0
    0.3235   -1.9469   -4.6602 C   0  0  0  0  0  0  0  0  0  0  0  0
    1.0255   -2.2953   -3.3471 C   0  0  0  0  0  0  0  0  0  0  0  0
   -2.3681    2.1862   -1.6019 C   0  0  0  0  0  0  0  0  0  0  0  0
   -2.2929    1.2008   -2.7568 C   0  0  0  0  0  0  0  0  0  0  0  0
   -3.0669    0.1931   -2.7838 O   0  0  0  0  0  0  0  0  0  0  0  0
   -1.3578    1.4060   -3.8056 O   0  0  0  0  0  0  0  0  0  0  0  0
    2.4376    3.9630   -4.4158 C   0  0  0  0  0  0  0  0  0  0  0  0
    1.6521    5.0565   -4.4557 C   0  0  0  0  0  0  0  0  0  0  0  0
    2.0516    6.2100   -4.8090 O   0  0  0  0  0  0  0  0  0  0  0  0
    0.3996    4.7781   -4.0774 O   0  0  0  0  0  0  0  0  0  0  0  0
    2.6441    2.9287   -4.6257 O   0  0  0  0  0  0  0  0  0  0  0  0
    3.1077    3.4663   -5.9816 S   0  0  0  0  0  0  0  0  0  0  0  0
    3.0552    5.2754   -5.9633 C   0  0  0  0  0  0  0  0  0  0  0  0
    4.8017    2.9150   -6.3019 C   0  0  0  0  0  0  0  0  0  0  0  0
    0.6074   -1.0809    0.1500 H   0  0  0  0  0  0  0  0  0  0  0  0
    0.6074    0.5093    0.8741 H   0  0  0  0  0  0  0  0  0  0  0  0
    2.0340   -0.0768    0.0530 H   0  0  0  0  0  0  0  0  0  0  0  0
   -1.8060    1.2164   -0.6790 H   0  0  0  0  0  0  0  0  0  0  0  0
   -1.8060    1.0484   -2.4182 H   0  0  0  0  0  0  0  0  0  0  0  0
   -1.8060   -0.3738   -1.4031 H   0  0  0  0  0  0  0  0  0  0  0  0
   -1.5304   -2.7014   -2.6385 H   0  0  0  0  0  0  0  0  0  0  0  0
   -0.4716   -3.5635   -1.5482 H   0  0  0  0  0  0  0  0  0  0  0  0
    0.1624   -0.8097   -2.6549 H   0  0  0  0  0  0  0  0  0  0  0  0
    1.5144   -1.9389   -0.4706 H   0  0  0  0  0  0  0  0  0  0  0  0
    2.0810   -0.7580   -1.6289 H   0  0  0  0  0  0  0  0  0  0  0  0
    0.4613   -0.3401    0.6937 H   0  0  0  0  0  0  0  0  0  0  0  0
   -0.4368    0.1393   -0.7276 H   0  0  0  0  0  0  0  0  0  0  0  0
    1.9742    1.1064    0.3891 H   0  0  0  0  0  0  0  0  0  0  0  0
    0.5174    3.0125   -1.2606 H   0  0  0  0  0  0  0  0  0  0  0  0
    0.1250    1.5502   -2.1336 H   0  0  0  0  0  0  0  0  0  0  0  0
    2.6047    1.4128   -2.7143 H   0  0  0  0  0  0  0  0  0  0  0  0
    2.7251    3.0588   -2.1321 H   0  0  0  0  0  0  0  0  0  0  0  0
    2.5430    2.5934   -3.9074 H   0  0  0  0  0  0  0  0  0  0  0  0
    2.4845    1.4344   -5.2126 H   0  0  0  0  0  0  0  0  0  0  0  0
    0.9527    2.0531   -5.7994 H   0  0  0  0  0  0  0  0  0  0  0  0
   -0.2686    0.7053   -4.2496 H   0  0  0  0  0  0  0  0  0  0  0  0
    1.1867    0.2715   -3.3867 H   0  0  0  0  0  0  0  0  0  0  0  0
    1.3789   -1.2239   -6.0557 H   0  0  0  0  0  0  0  0  0  0  0  0
    0.4153   -2.7687   -5.3392 H   0  0  0  0  0  0  0  0  0  0  0  0
   -0.7110   -1.7514   -4.4692 H   0  0  0  0  0  0  0  0  0  0  0  0
    2.0148   -1.8878   -3.3547 H   0  0  0  0  0  0  0  0  0  0  0  0
    1.0762   -3.3590   -3.2421 H   0  0  0  0  0  0  0  0  0  0  0  0
   -2.1610    1.6765   -0.6842 H   0  0  0  0  0  0  0  0  0  0  0  0
   -1.6474    2.9634   -1.7487 H   0  0  0  0  0  0  0  0  0  0  0  0
    3.2893    4.1116   -3.7855 H   0  0  0  0  0  0  0  0  0  0  0  0
    2.8065    3.7330   -5.3935 H   0  0  0  0  0  0  0  0  0  0  0  0
    3.7015    5.6432   -5.1940 H   0  0  0  0  0  0  0  0  0  0  0  0
    3.3794    5.6512   -6.9113 H   0  0  0  0  0  0  0  0  0  0  0  0
    2.0538    5.6013   -5.7740 H   0  0  0  0  0  0  0  0  0  0  0  0
    5.4480    3.2829   -5.5325 H   0  0  0  0  0  0  0  0  0  0  0  0
    4.8328    1.8455   -6.3127 H   0  0  0  0  0  0  0  0  0  0  0  0
    5.1259    3.2908   -7.2498 H   0  0  0  0  0  0  0  0  0  0  0  0
  1  2  1  0  0  0  0
  1 34  1  0  0  0  0
  1 35  1  0  0  0  0
  1 36  1  0  0  0  0
  2  3  1  0  0  0  0
  2  4  2  0  0  0  0
  3 37  1  0  0  0  0
  3 38  1  0  0  0  0
  3 39  1  0  0  0  0
  4  5  1  0  0  0  0
  5  6  1  0  0  0  0
  5 10  1  0  0  0  0
  5 13  1  0  0  0  0
  5 16  1  0  0  0  0
  5 19  1  0  0  0  0
  5 25  1  0  0  0  0
  5 29  1  0  0  0  0
  5 30  1  0  0  0  0
  6  7  1  0  0  0  0
  7  8  2  0  0  0  0
  7  9  1  0  0  0  0
  9 10  1  0  0  0  0
  9 40  1  0  0  0  0
  9 41  1  0  0  0  0
 10 11  1  0  0  0  0
 10 21  1  0  0  0  0
 10 42  1  0  0  0  0
 11 12  1  0  0  0  0
 11 43  1  0  0  0  0
 11 44  1  0  0  0  0
 12 13  1  0  0  0  0
 12 45  1  0  0  0  0
 12 46  1  0  0  0  0
 13 14  1  0  0  0  0
 13 47  1  0  0  0  0
 14 15  1  0  0  0  0
 14 48  1  0  0  0  0
 14 49  1  0  0  0  0
 15 16  1  0  0  0  0
 15 50  1  0  0  0  0
 15 51  1  0  0  0  0
 16 17  1  0  0  0  0
 16 26  1  0  0  0  0
 16 52  1  0  0  0  0
 17 18  1  0  0  0  0
 17 53  1  0  0  0  0
 17 54  1  0  0  0  0
 18 19  1  0  0  0  0
 18 55  1  0  0  0  0
 18 56  1  0  0  0  0
 19 20  1  0  0  0  0
 19 22  1  0  0  0  0
 19 57  1  0  0  0  0
 20 21  1  0  0  0  0
 20 58  1  0  0  0  0
 20 59  1  0  0  0  0
 21 60  1  0  0  0  0
 21 61  1  0  0  0  0
 22 23  1  0  0  0  0
 22 62  1  0  0  0  0
 22 63  1  0  0  0  0
 23 24  2  0  0  0  0
 23 25  1  0  0  0  0
 26 27  1  0  0  0  0
 26 64  1  0  0  0  0
 26 65  1  0  0  0  0
 27 28  2  0  0  0  0
 27 29  1  0  0  0  0
 30 31  2  0  0  0  0
 31 32  1  0  0  0  0
 31 33  1  0  0  0  0
 32 66  1  0  0  0  0
 32 67  1  0  0  0  0
 32 68  1  0  0  0  0
 33 69  1  0  0  0  0
 33 70  1  0  0  0  0
 33 71  1  0  0  0  0
M  CHG  1   5   1
M  END
$$$$
