
 OpenBabel08122501163D

 57 60  0  0  0  0  0  0  0  0999 V2000
    1.1893   -0.0746    1.0777 C   0  0  0  0  0  0  0  0  0  0  0  0
    0.2813    0.9989    1.2771 O   0  0  0  0  0  0  0  0  0  0  0  0
    0.7888    2.1556    1.8095 C   0  0  0  0  0  0  0  0  0  0  0  0
    2.0591    2.2639    2.3906 C   0  0  0  0  0  0  0  0  0  0  0  0
    2.4882    3.4751    2.9418 C   0  0  0  0  0  0  0  0  0  0  0  0
    1.6555    4.5897    2.9171 C   0  0  0  0  0  0  0  0  0  0  0  0
    0.3900    4.4936    2.3421 C   0  0  0  0  0  0  0  0  0  0  0  0
   -0.0491    3.2826    1.7910 C   0  0  0  0  0  0  0  0  0  0  0  0
   -1.3825    3.2380    1.2651 C   0  0  0  0  0  0  0  0  0  0  0  0
   -2.6368    3.2848    0.9122 C   0  0  0  0  0  0  0  0  0  0  0  0
   -4.0990    3.3393    0.5007 C   0  0  0  0  0  0  0  0  0  0  0  0
   -4.5577    3.0015   -0.7253 C   0  0  0  0  0  0  0  0  0  0  0  0
   -3.6645    3.1734   -1.8511 N   0  0  0  0  0  0  0  0  0  0  0  0
   -2.3289    2.6985   -1.9578 C   0  0  0  0  0  0  0  0  0  0  0  0
   -2.0219    1.3454   -1.8063 C   0  0  0  0  0  0  0  0  0  0  0  0
   -0.7130    0.9055   -2.0122 C   0  0  0  0  0  0  0  0  0  0  0  0
    0.2834    1.8120   -2.3783 C   0  0  0  0  0  0  0  0  0  0  0  0
   -0.0284    3.1586   -2.5570 C   0  0  0  0  0  0  0  0  0  0  0  0
   -1.3370    3.5985   -2.3623 C   0  0  0  0  0  0  0  0  0  0  0  0
   -4.5507    3.3063   -3.3021 S   0  0  0  0  0  0  0  0  0  0  0  0
   -4.5316    4.6794   -3.7603 O   0  0  0  0  0  0  0  0  0  0  0  0
   -4.2967    2.1803   -4.1746 O   0  0  0  0  0  0  0  0  0  0  0  0
   -6.0996    3.0241   -2.5473 C   0  0  0  0  0  0  0  0  0  0  0  0
   -7.2919    2.8554   -3.2389 C   0  0  0  0  0  0  0  0  0  0  0  0
   -8.4004    2.4266   -2.5157 C   0  0  0  0  0  0  0  0  0  0  0  0
   -8.2721    2.1264   -1.1538 C   0  0  0  0  0  0  0  0  0  0  0  0
   -7.0426    2.2854   -0.4966 C   0  0  0  0  0  0  0  0  0  0  0  0
   -5.9503    2.8065   -1.1818 C   0  0  0  0  0  0  0  0  0  0  0  0
   -5.0659    3.9786    2.0193 Si  0  0  0  0  0  0  0  0  0  0  0  0
   -5.1801    2.6121    3.3070 C   0  0  0  0  0  0  0  0  0  0  0  0
   -4.0616    5.4028    2.8040 C   0  0  0  0  0  0  0  0  0  0  0  0
   -6.7627    4.6820    1.6610 C   0  0  0  0  0  0  0  0  0  0  0  0
    0.6606   -0.8609    0.5321 H   0  0  0  0  0  0  0  0  0  0  0  0
    1.5139   -0.4957    2.0341 H   0  0  0  0  0  0  0  0  0  0  0  0
    2.0463    0.2320    0.4689 H   0  0  0  0  0  0  0  0  0  0  0  0
    2.7358    1.4176    2.4459 H   0  0  0  0  0  0  0  0  0  0  0  0
    3.4728    3.5433    3.3976 H   0  0  0  0  0  0  0  0  0  0  0  0
    1.9846    5.5299    3.3512 H   0  0  0  0  0  0  0  0  0  0  0  0
   -0.2616    5.3645    2.3349 H   0  0  0  0  0  0  0  0  0  0  0  0
   -2.7926    0.6316   -1.5339 H   0  0  0  0  0  0  0  0  0  0  0  0
   -0.4708   -0.1456   -1.8853 H   0  0  0  0  0  0  0  0  0  0  0  0
    1.3029    1.4680   -2.5298 H   0  0  0  0  0  0  0  0  0  0  0  0
    0.7429    3.8649   -2.8514 H   0  0  0  0  0  0  0  0  0  0  0  0
   -1.5811    4.6472   -2.5130 H   0  0  0  0  0  0  0  0  0  0  0  0
   -7.3464    3.0213   -4.3104 H   0  0  0  0  0  0  0  0  0  0  0  0
   -9.3550    2.2794   -3.0161 H   0  0  0  0  0  0  0  0  0  0  0  0
   -9.1295    1.7400   -0.6057 H   0  0  0  0  0  0  0  0  0  0  0  0
   -6.9603    1.9661    0.5372 H   0  0  0  0  0  0  0  0  0  0  0  0
   -4.1816    2.2643    3.5889 H   0  0  0  0  0  0  0  0  0  0  0  0
   -5.6794    2.9800    4.2084 H   0  0  0  0  0  0  0  0  0  0  0  0
   -5.7469    1.7600    2.9219 H   0  0  0  0  0  0  0  0  0  0  0  0
   -3.8585    6.1728    2.0536 H   0  0  0  0  0  0  0  0  0  0  0  0
   -4.6337    5.8542    3.6197 H   0  0  0  0  0  0  0  0  0  0  0  0
   -3.1128    5.0393    3.2066 H   0  0  0  0  0  0  0  0  0  0  0  0
   -6.7892    5.1902    0.6928 H   0  0  0  0  0  0  0  0  0  0  0  0
   -7.5368    3.9114    1.6799 H   0  0  0  0  0  0  0  0  0  0  0  0
   -7.0320    5.4169    2.4268 H   0  0  0  0  0  0  0  0  0  0  0  0
  1  2  1  0  0  0  0
  1 33  1  0  0  0  0
  1 34  1  0  0  0  0
  1 35  1  0  0  0  0
  2  3  1  0  0  0  0
  3  4  1  0  0  0  0
  3  8  2  0  0  0  0
  4  5  2  0  0  0  0
  4 36  1  0  0  0  0
  5  6  1  0  0  0  0
  5 37  1  0  0  0  0
  6  7  2  0  0  0  0
  6 38  1  0  0  0  0
  7  8  1  0  0  0  0
  7 39  1  0  0  0  0
  8  9  1  0  0  0  0
  9 10  3  0  0  0  0
 10 11  1  0  0  0  0
 11 12  2  0  0  0  0
 11 29  1  0  0  0  0
 12 13  1  0  0  0  0
 12 28  1  0  0  0  0
 13 14  1  0  0  0  0
 13 20  1  0  0  0  0
 14 15  1  0  0  0  0
 14 19  2  0  0  0  0
 15 16  2  0  0  0  0
 15 40  1  0  0  0  0
 16 17  1  0  0  0  0
 16 41  1  0  0  0  0
 17 18  2  0  0  0  0
 17 42  1  0  0  0  0
 18 19  1  0  0  0  0
 18 43  1  0  0  0  0
 19 44  1  0  0  0  0
 20 21  2  0  0  0  0
 20 22  2  0  0  0  0
 20 23  1  0  0  0  0
 23 24  1  0  0  0  0
 23 28  2  0  0  0  0
 24 25  2  0  0  0  0
 24 45  1  0  0  0  0
 25 26  1  0  0  0  0
 25 46  1  0  0  0  0
 26 27  2  0  0  0  0
 26 47  1  0  0  0  0
 27 28  1  0  0  0  0
 27 48  1  0  0  0  0
 29 30  1  0  0  0  0
 29 31  1  0  0  0  0
 29 32  1  0  0  0  0
 30 49  1  0  0  0  0
 30 50  1  0  0  0  0
 30 51  1  0  0  0  0
 31 52  1  0  0  0  0
 31 53  1  0  0  0  0
 31 54  1  0  0  0  0
 32 55  1  0  0  0  0
 32 56  1  0  0  0  0
 32 57  1  0  0  0  0
M  END
$$$$
