
 OpenBabel09252516343D

 73 77  0  0  0  0  0  0  0  0999 V2000
    1.0640   -0.0493    0.0589 Cl  0  0  0  0  0  0  0  0  0  0  0  0
    3.4940   -0.0493    0.0589 Ir  0  0  0  0  0  0  0  0  0  0  0  0
    3.4940    1.4004    0.2500 N   0  0  0  0  0  0  0  0  0  0  0  0
    2.8951    1.9800    1.3485 C   0  0  0  0  0  0  0  0  0  0  0  0
    2.2787    1.2041    2.3252 C   0  0  0  0  0  0  0  0  0  0  0  0
    2.2580   -0.2983    2.2047 C   0  0  0  0  0  0  0  0  0  0  0  0
    3.4940   -0.7501    1.4196 P   0  0  0  0  0  4  0  0  0  0  0  0
    3.4557   -2.5648    1.1865 C   0  0  0  0  0  0  0  0  0  0  0  0
    4.6830   -3.0010    0.4029 C   0  0  0  0  0  0  0  0  0  0  0  0
    3.4510   -3.2500    2.5433 C   0  0  0  0  0  0  0  0  0  0  0  0
    5.0085   -0.3013    2.3435 C   0  0  0  0  0  0  0  0  0  0  0  0
    5.0566    1.2057    2.5361 C   0  0  0  0  0  0  0  0  0  0  0  0
    4.9954   -0.9853    3.7008 C   0  0  0  0  0  0  0  0  0  0  0  0
    1.6829    1.8067    3.4126 C   0  0  0  0  0  0  0  0  0  0  0  0
    1.6916    3.1882    3.5476 C   0  0  0  0  0  0  0  0  0  0  0  0
    2.2930    3.9712    2.6061 C   0  0  0  0  0  0  0  0  0  0  0  0
    2.9078    3.3825    1.4903 C   0  0  0  0  0  0  0  0  0  0  0  0
    3.5022    4.1616    0.5667 C   0  0  0  0  0  0  0  0  0  0  0  0
    4.0805    3.6453   -0.4792 C   0  0  0  0  0  0  0  0  0  0  0  0
    4.7448    4.5499   -1.5043 C   0  0  0  0  0  0  0  0  0  0  0  0
    4.7350    5.8989   -1.3287 C   0  0  0  0  0  0  0  0  0  0  0  0
    3.2805    0.6328   -2.4412 C   0  0  0  0  0  0  0  0  0  0  0  0
    3.4144    1.9130   -2.0008 C   0  0  0  0  0  0  0  0  0  0  0  0
    6.5840   -1.0998    1.4277 C   0  0  0  0  0  0  0  0  0  0  0  0
    5.9740   -0.0493    0.0589 P   0  0  0  0  0  4  0  0  0  0  0  0
    6.5840   -0.7094   -1.5351 C   0  0  0  0  0  0  0  0  0  0  0  0
    6.0773    0.1631   -2.6720 C   0  0  0  0  0  0  0  0  0  0  0  0
    8.1040   -0.7094   -1.5351 C   0  0  0  0  0  0  0  0  0  0  0  0
    6.5839    1.6612    0.2843 C   0  0  0  0  0  0  0  0  0  0  0  0
    6.0773    2.5337   -0.8525 C   0  0  0  0  0  0  0  0  0  0  0  0
    6.0773    2.2095    1.6084 C   0  0  0  0  0  0  0  0  0  0  0  0
    4.0912    2.1915   -0.6686 C   0  0  0  0  0  3  0  0  0  0  0  0
    3.4940   -1.7546   -0.1657 H   0  0  0  0  0  0  0  0  0  0  0  0
    3.4940    0.7382   -1.4702 H   0  0  0  0  0  0  0  0  0  0  0  0
    1.3705   -0.6090    1.6941 H   0  0  0  0  0  0  0  0  0  0  0  0
    2.2720   -0.7372    3.1805 H   0  0  0  0  0  0  0  0  0  0  0  0
    2.5727   -2.8365    0.6467 H   0  0  0  0  0  0  0  0  0  0  0  0
    5.5659   -2.7293    0.9427 H   0  0  0  0  0  0  0  0  0  0  0  0
    4.6606   -4.0620    0.2666 H   0  0  0  0  0  0  0  0  0  0  0  0
    4.6863   -2.5187   -0.5522 H   0  0  0  0  0  0  0  0  0  0  0  0
    2.5871   -2.9429    3.0949 H   0  0  0  0  0  0  0  0  0  0  0  0
    3.4286   -4.3110    2.4070 H   0  0  0  0  0  0  0  0  0  0  0  0
    4.3340   -2.9782    3.0831 H   0  0  0  0  0  0  0  0  0  0  0  0
    5.8694   -0.6181    1.7927 H   0  0  0  0  0  0  0  0  0  0  0  0
    4.1957    1.5226    3.0869 H   0  0  0  0  0  0  0  0  0  0  0  0
    5.9421    1.4682    3.0763 H   0  0  0  0  0  0  0  0  0  0  0  0
    5.0657    1.6873    1.5806 H   0  0  0  0  0  0  0  0  0  0  0  0
    4.9616   -2.0462    3.5652 H   0  0  0  0  0  0  0  0  0  0  0  0
    5.8810   -0.7229    4.2410 H   0  0  0  0  0  0  0  0  0  0  0  0
    4.1346   -0.6685    4.2516 H   0  0  0  0  0  0  0  0  0  0  0  0
    1.2095    1.2040    4.1593 H   0  0  0  0  0  0  0  0  0  0  0  0
    1.2233    3.6421    4.3958 H   0  0  0  0  0  0  0  0  0  0  0  0
    2.2960    5.0353    2.7185 H   0  0  0  0  0  0  0  0  0  0  0  0
    3.4992    5.2239    0.6948 H   0  0  0  0  0  0  0  0  0  0  0  0
    5.2201    4.1257   -2.3639 H   0  0  0  0  0  0  0  0  0  0  0  0
    4.2597    6.3231   -0.4691 H   0  0  0  0  0  0  0  0  0  0  0  0
    2.8041    0.4367   -3.3790 H   0  0  0  0  0  0  0  0  0  0  0  0
    7.6540   -1.0998    1.4277 H   0  0  0  0  0  0  0  0  0  0  0  0
    6.2273   -0.7138    2.3597 H   0  0  0  0  0  0  0  0  0  0  0  0
    6.2273   -1.7096   -1.6669 H   0  0  0  0  0  0  0  0  0  0  0  0
    6.4340    1.1632   -2.5402 H   0  0  0  0  0  0  0  0  0  0  0  0
    6.4340   -0.2229   -3.6040 H   0  0  0  0  0  0  0  0  0  0  0  0
    5.0073    0.1630   -2.6720 H   0  0  0  0  0  0  0  0  0  0  0  0
    8.4606   -1.3236   -0.7348 H   0  0  0  0  0  0  0  0  0  0  0  0
    8.4606   -1.0954   -2.4672 H   0  0  0  0  0  0  0  0  0  0  0  0
    8.4606    0.2907   -1.4034 H   0  0  0  0  0  0  0  0  0  0  0  0
    7.6539    1.6612    0.2843 H   0  0  0  0  0  0  0  0  0  0  0  0
    5.0073    2.5337   -0.8525 H   0  0  0  0  0  0  0  0  0  0  0  0
    6.4339    3.5339   -0.7208 H   0  0  0  0  0  0  0  0  0  0  0  0
    6.4339    2.1478   -1.7846 H   0  0  0  0  0  0  0  0  0  0  0  0
    6.4339    1.5953    2.4086 H   0  0  0  0  0  0  0  0  0  0  0  0
    6.4339    3.2097    1.7401 H   0  0  0  0  0  0  0  0  0  0  0  0
    5.0073    2.2095    1.6083 H   0  0  0  0  0  0  0  0  0  0  0  0
  1  2  1  0  0  0  0
  2  3  1  0  0  0  0
  2  7  1  0  0  0  0
  2 25  1  0  0  0  0
  2 33  1  0  0  0  0
  2 34  1  0  0  0  0
  3  4  1  0  0  0  0
  3 32  1  0  0  0  0
  4  5  1  0  0  0  0
  4 17  2  0  0  0  0
  5  6  1  0  0  0  0
  5 14  2  0  0  0  0
  6  7  1  0  0  0  0
  6 35  1  0  0  0  0
  6 36  1  0  0  0  0
  7  8  1  0  0  0  0
  7 11  1  0  0  0  0
  8  9  1  0  0  0  0
  8 10  1  0  0  0  0
  8 37  1  0  0  0  0
  9 38  1  0  0  0  0
  9 39  1  0  0  0  0
  9 40  1  0  0  0  0
 10 41  1  0  0  0  0
 10 42  1  0  0  0  0
 10 43  1  0  0  0  0
 11 12  1  0  0  0  0
 11 13  1  0  0  0  0
 11 44  1  0  0  0  0
 12 45  1  0  0  0  0
 12 46  1  0  0  0  0
 12 47  1  0  0  0  0
 13 48  1  0  0  0  0
 13 49  1  0  0  0  0
 13 50  1  0  0  0  0
 14 15  1  0  0  0  0
 14 51  1  0  0  0  0
 15 16  2  0  0  0  0
 15 52  1  0  0  0  0
 16 17  1  0  0  0  0
 16 53  1  0  0  0  0
 17 18  1  0  0  0  0
 18 19  2  0  0  0  0
 18 54  1  0  0  0  0
 19 20  1  0  0  0  0
 19 32  1  0  0  0  0
 20 21  2  0  0  0  0
 20 55  1  0  0  0  0
 21 22  1  0  0  0  0
 21 56  1  0  0  0  0
 22 23  2  0  0  0  0
 22 57  1  0  0  0  0
 23 24  1  0  0  0  0
 23 32  1  0  0  0  0
 24 25  1  0  0  0  0
 24 58  1  0  0  0  0
 24 59  1  0  0  0  0
 25 26  1  0  0  0  0
 25 29  1  0  0  0  0
 26 27  1  0  0  0  0
 26 28  1  0  0  0  0
 26 60  1  0  0  0  0
 27 61  1  0  0  0  0
 27 62  1  0  0  0  0
 27 63  1  0  0  0  0
 28 64  1  0  0  0  0
 28 65  1  0  0  0  0
 28 66  1  0  0  0  0
 29 30  1  0  0  0  0
 29 31  1  0  0  0  0
 29 67  1  0  0  0  0
 30 68  1  0  0  0  0
 30 69  1  0  0  0  0
 30 70  1  0  0  0  0
 31 71  1  0  0  0  0
 31 72  1  0  0  0  0
 31 73  1  0  0  0  0
M  END
$$$$
