
     RDKit          3D

  0  0  0  0  0  0  0  0  0  0999 V3000
M  V30 BEGIN CTAB
M  V30 COUNTS 43 45 0 0 0
M  V30 BEGIN ATOM
M  V30 1 C 2.599805 -2.324200 -0.808099 0
M  V30 2 C 1.700973 -1.109602 -0.477695 0
M  V30 3 N 1.063622 -1.324751 0.769667 0
M  V30 4 Pt -0.679142 -1.032090 0.618041 0 VAL=4
M  V30 5 N -1.699975 -1.684926 -0.870710 0
M  V30 6 C -2.836293 -0.862746 -0.986500 0
M  V30 7 C -4.161247 -1.464543 -0.787119 0
M  V30 8 C -2.692452 0.460738 -0.297248 0
M  V30 9 C -3.539809 1.542317 -0.459825 0
M  V30 10 C -3.092629 2.767316 0.059269 0
M  V30 11 C -1.877069 2.880707 0.698709 0
M  V30 12 C -0.996129 1.834201 0.889343 0
M  V30 13 C -1.479330 0.666585 0.366293 0
M  V30 14 N -1.640328 -1.868927 2.256510 0
M  V30 15 C -1.300977 -1.247544 3.293668 0
M  V30 16 O -0.973080 -1.167802 4.511787 0
M  V30 17 C 2.544012 0.101893 -0.442145 0
M  V30 18 C 3.783515 -0.041918 0.191034 0
M  V30 19 C 4.611813 1.092983 0.197975 0
M  V30 20 C 4.187175 2.274046 -0.404139 0
M  V30 21 C 2.954169 2.384048 -1.023973 0
M  V30 22 C 2.116779 1.297555 -1.046732 0
M  V30 23 H 2.044559 -3.001716 -1.476668 0
M  V30 24 H 2.827452 -2.809118 0.168974 0
M  V30 25 H 3.544858 -1.921038 -1.232369 0
M  V30 26 H 0.955695 -1.065359 -1.306923 0
M  V30 27 H 1.417891 -0.722483 1.550339 0
M  V30 28 H 1.231771 -2.317995 1.070841 0
M  V30 29 H -1.865266 -2.683646 -0.746273 0
M  V30 30 H -1.048352 -1.628653 -1.710909 0
M  V30 31 H -2.823213 -0.467307 -2.125101 0
M  V30 32 H -4.120331 -2.556507 -1.090403 0
M  V30 33 H -5.036625 -0.940228 -1.171361 0
M  V30 34 H -4.278282 -1.526410 0.366304 0
M  V30 35 H -4.478547 1.413991 -0.963122 0
M  V30 36 H -3.697435 3.635798 -0.044751 0
M  V30 37 H -1.532153 3.834409 1.137667 0
M  V30 38 H -0.049935 1.790595 1.350051 0
M  V30 39 H 4.069478 -0.985151 0.631519 0
M  V30 40 H 5.587940 0.998722 0.696039 0
M  V30 41 H 4.861196 3.133796 -0.378268 0
M  V30 42 H 2.653702 3.326440 -1.517937 0
M  V30 43 H 1.142196 1.318518 -1.492443 0
M  V30 END ATOM
M  V30 BEGIN BOND
M  V30 1 1 1 2
M  V30 2 1 2 3
M  V30 3 9 3 4
M  V30 4 9 5 4
M  V30 5 1 5 6
M  V30 6 1 6 7
M  V30 7 1 6 8
M  V30 8 2 8 9
M  V30 9 1 9 10
M  V30 10 2 10 11
M  V30 11 1 11 12
M  V30 12 2 12 13
M  V30 13 1 4 14
M  V30 14 2 14 15
M  V30 15 2 15 16
M  V30 16 1 2 17
M  V30 17 2 17 18
M  V30 18 1 18 19
M  V30 19 2 19 20
M  V30 20 1 20 21
M  V30 21 2 21 22
M  V30 22 1 13 4
M  V30 23 1 22 17
M  V30 24 1 13 8
M  V30 25 1 1 23
M  V30 26 1 1 24
M  V30 27 1 1 25
M  V30 28 1 2 26
M  V30 29 1 3 27
M  V30 30 1 3 28
M  V30 31 1 5 29
M  V30 32 1 5 30
M  V30 33 1 6 31
M  V30 34 1 7 32
M  V30 35 1 7 33
M  V30 36 1 7 34
M  V30 37 1 9 35
M  V30 38 1 10 36
M  V30 39 1 11 37
M  V30 40 1 12 38
M  V30 41 1 18 39
M  V30 42 1 19 40
M  V30 43 1 20 41
M  V30 44 1 21 42
M  V30 45 1 22 43
M  V30 END BOND
M  V30 END CTAB
M  END
