
  --CCDC--092525    3D                              

 46 54  0  0  0  0  0  0  0  0999 V2000
    0.3763    0.0886    1.8714 Cl     0
    1.0675    2.1292    0.8138 Ir     0
   -0.8781    2.5282    1.5104 C      0
   -0.9263    2.0539    0.2595 C      0
   -1.6689    1.5705   -0.9285 C      0
   -2.9293    1.6296   -1.4678 C      0
   -3.1680    0.8830   -2.6174 C      0
   -2.2059    0.0871   -3.1874 C      0
   -0.9056   -0.0066   -2.6273 C      0
    0.1553   -0.8164   -3.0855 C      0
    1.3420   -0.8046   -2.4111 C      0
    1.5577   -0.0034   -1.2948 C      0
    0.5660    0.8347   -0.7922 C      0
   -0.6575    0.7820   -1.4882 C      0
    2.9617    1.7309    1.1516 C      0
    3.6050    0.3844    1.4038 C      0
    2.3570    2.6236    2.2292 C      0
    2.2310    2.2718    3.6948 C      0
    1.7441    3.8432    1.5413 C      0
    0.8953    4.8951    2.2208 C      0
    1.9363    3.7070    0.0331 C      0
    1.3550    4.6069   -1.0345 C      0
    2.7892    2.4554   -0.1890 C      0
    4.1701    3.0579   -0.3218 C      0
   -1.4679    2.8548    2.3604 H      0
   -3.7092    2.2327   -1.0147 H      0
   -4.1510    0.9255   -3.0747 H      0
   -2.4458   -0.4854   -4.0773 H      0
    0.0270   -1.4463   -3.9597 H      0
    2.1490   -1.4389   -2.7627 H      0
    2.5323   -0.0278   -0.8257 H      0
    2.9066   -0.4246    1.2016 H      0
    3.9307    0.3006    2.4385 H      0
    4.4739    0.2475    0.7636 H      0
    3.0831    1.6809    4.0242 H      0
    1.3272    1.6938    3.8764 H      0
    2.1863    3.1715    4.3049 H      0
   -0.0374    5.0492    1.6824 H      0
    1.4219    5.8463    2.2614 H      0
    0.6547    4.5978    3.2394 H      0
    0.3637    4.2674   -1.3273 H      0
    1.2699    5.6294   -0.6725 H      0
    1.9868    4.6124   -1.9202 H      0
    4.8023    2.7610    0.5124 H      0
    4.1170    4.1445   -0.3369 H      0
    4.6474    2.7291   -1.2426 H      0
  1  2  1
  2  3  1
  3  4  2
  2  4  1
  4  5  1
  5  6  4
  6  7  4
  7  8  4
  8  9  4
  9 10  4
 10 11  4
 11 12  4
 12 13  4
  2 13  1
 13 14  4
  5 14  4
  9 14  4
  2 15  1
 15 16  1
 15 17  4
  2 17  1
 17 18  1
 17 19  4
  2 19  1
 19 20  1
 19 21  4
  2 21  1
 21 22  1
 21 23  4
  2 23  1
 15 23  4
 23 24  1
  3 25  1
  6 26  1
  7 27  1
  8 28  1
 10 29  1
 11 30  1
 12 31  1
 16 32  1
 16 33  1
 16 34  1
 18 35  1
 18 36  1
 18 37  1
 20 38  1
 20 39  1
 20 40  1
 22 41  1
 22 42  1
 22 43  1
 24 44  1
 24 45  1
 24 46  1
M  END
$$$$
