
 OpenBabel09252513333D

 48 56  0  0  1  0  0  0  0  0999 V2000
    0.9426   -0.0023    0.0818 H   0  0  0  0  0  0  0  0  0  0  0  0
    2.0126   -0.0023    0.0818 C   0  0  0  0  0  3  0  0  0  0  0  0
    2.5192   -1.1913    0.8819 C   0  0  0  0  0  3  0  0  0  0  0  0
    3.5892   -1.1913    0.8819 H   0  0  0  0  0  0  0  0  0  0  0  0
    2.0126   -1.0929    2.3116 C   0  0  0  0  0  3  0  0  0  0  0  0
    2.8465   -0.0428    3.0157 C   0  0  0  0  0  3  0  0  0  0  0  0
    2.2948    1.3292    2.6028 C   0  0  0  0  0  3  0  0  0  0  0  0
    2.3473    1.4665    1.0899 C   0  0  0  0  0  3  0  0  0  0  0  0
    1.7558    0.6961    0.6411 H   0  0  0  0  0  0  0  0  0  0  0  0
    1.8004    2.8258    0.6853 C   0  0  0  0  0  3  0  0  0  0  0  0
    2.3919    3.5962    1.1341 H   0  0  0  0  0  0  0  0  0  0  0  0
    1.8529    2.9631   -0.8276 C   0  0  0  0  0  3  0  0  0  0  0  0
    2.3509    3.7803   -1.3062 H   0  0  0  0  0  0  0  0  0  0  0  0
    4.3020   -0.1663    2.5956 C   0  0  0  0  0  3  0  0  0  0  0  0
    2.5192    1.2850    0.7115 C   0  0  0  0  0  3  0  0  0  0  0  0
    3.0464    1.9156    0.0264 H   0  0  0  0  0  0  0  0  0  0  0  0
    0.8440    1.4421    3.0797 Ir  0  0  0  0  0  0  0  0  0  0  0  0
    0.8340    3.8358    3.4982 Cl  0  0  0  0  0  0  0  0  0  0  0  0
    0.0271    0.2807    2.5940 C   0  0  0  0  0  0  0  0  0  0  0  0
   -0.1156    0.5757    1.5755 H   0  0  0  0  0  0  0  0  0  0  0  0
    0.9675    0.7250    2.8457 H   0  0  0  0  0  0  0  0  0  0  0  0
    0.5541   -0.8814    2.2485 C   0  0  1  0  0  0  0  0  0  0  0  0
    1.3249   -1.5394    2.5919 H   0  0  0  0  0  0  0  0  0  0  0  0
    0.7872    3.9471    4.6848 C   0  0  2  0  0  0  0  0  0  0  0  0
    0.3859    5.1608    5.5072 C   0  0  0  0  0  0  0  0  0  0  0  0
   -0.5404    5.5505    5.1396 H   0  0  0  0  0  0  0  0  0  0  0  0
    0.2710    4.8750    6.5318 H   0  0  0  0  0  0  0  0  0  0  0  0
    1.1445    5.9113    5.4292 H   0  0  0  0  0  0  0  0  0  0  0  0
    1.4048    2.6832    5.2907 C   0  0  2  0  0  0  0  0  0  0  0  0
    2.1577    3.0196    6.5676 C   0  0  0  0  0  0  0  0  0  0  0  0
    1.7284    2.4819    7.3871 H   0  0  0  0  0  0  0  0  0  0  0  0
    3.1856    2.7431    6.4589 H   0  0  0  0  0  0  0  0  0  0  0  0
    2.0890    4.0707    6.7555 H   0  0  0  0  0  0  0  0  0  0  0  0
    0.8174    1.4773    4.5926 C   0  0  2  0  0  0  0  0  0  0  0  0
    0.6782    0.4369    5.6920 C   0  0  0  0  0  0  0  0  0  0  0  0
    1.1137    0.8111    6.5949 H   0  0  0  0  0  0  0  0  0  0  0  0
   -0.3583    0.2278    5.8559 H   0  0  0  0  0  0  0  0  0  0  0  0
    1.1811   -0.4609    5.3988 H   0  0  0  0  0  0  0  0  0  0  0  0
    0.2408    2.7501    2.5548 C   0  0  2  0  0  0  0  0  0  0  0  0
   -0.6013    3.1983    1.3715 C   0  0  0  0  0  0  0  0  0  0  0  0
    0.0351    3.6103    0.6164 H   0  0  0  0  0  0  0  0  0  0  0  0
   -1.1311    2.3587    0.9722 H   0  0  0  0  0  0  0  0  0  0  0  0
   -1.3009    3.9414    1.6928 H   0  0  0  0  0  0  0  0  0  0  0  0
    0.9888    3.9343    3.1683 C   0  0  2  0  0  0  0  0  0  0  0  0
    1.5128    5.2955    2.7403 C   0  0  0  0  0  0  0  0  0  0  0  0
    2.4854    5.4511    3.1583 H   0  0  0  0  0  0  0  0  0  0  0  0
    1.5730    5.3347    1.6727 H   0  0  0  0  0  0  0  0  0  0  0  0
    0.8486    6.0587    3.0884 H   0  0  0  0  0  0  0  0  0  0  0  0
  1  2  1  0  0  0  0
  2  3  1  0  0  0  0
  2 15  1  0  0  0  0
  3  5  1  0  0  0  0
  3  4  1  0  0  0  0
  5  6  1  0  0  0  0
  5 22  1  0  0  0  0
  6  7  1  0  0  0  0
  6 14  1  0  0  0  0
  7  8  1  0  0  0  0
  7 17  1  0  0  0  0
  8 10  1  0  0  0  0
  8  9  1  0  0  0  0
 10 12  1  0  0  0  0
 10 11  1  0  0  0  0
 12 14  1  0  0  0  0
 12 13  1  0  0  0  0
 14 15  1  0  0  0  0
 15 16  1  0  0  0  0
 17 19  1  0  0  0  0
 17 22  1  0  0  0  0
 17 24  1  0  0  0  0
 17 29  1  0  0  0  0
 17 34  1  0  0  0  0
 17 39  1  0  0  0  0
 17 44  1  0  0  0  0
 17 18  1  0  0  0  0
 19 22  2  0  0  0  0
 19 20  1  0  0  0  0
 19 21  1  0  0  0  0
 22 23  1  1  0  0  0
 24 29  1  0  0  0  0
 24 44  1  0  0  0  0
 24 25  1  6  0  0  0
 25 26  1  0  0  0  0
 25 27  1  0  0  0  0
 25 28  1  0  0  0  0
 29 34  1  0  0  0  0
 29 30  1  1  0  0  0
 30 31  1  0  0  0  0
 30 32  1  0  0  0  0
 30 33  1  0  0  0  0
 34 39  1  0  0  0  0
 34 35  1  1  0  0  0
 35 36  1  0  0  0  0
 35 37  1  0  0  0  0
 35 38  1  0  0  0  0
 39 44  1  0  0  0  0
 39 40  1  6  0  0  0
 40 41  1  0  0  0  0
 40 42  1  0  0  0  0
 40 43  1  0  0  0  0
 44 45  1  6  0  0  0
 45 46  1  0  0  0  0
 45 47  1  0  0  0  0
 45 48  1  0  0  0  0
M  END
$$$$
