
  --CCDC--092525    3D                              

 46 54  0  0  0  0  0  0  0  0999 V2000
    1.1398    0.1215   -0.2780 Cl     0
    1.5940    2.4677   -0.0550 Ir     0
    3.0918    1.8063   -1.3785 C      0
    2.0088    2.1965   -2.0633 C      0
    1.2233    2.3590   -3.3110 C      0
    1.4196    2.4241   -4.6675 C      0
    0.2881    2.4881   -5.4751 C      0
   -0.9842    2.4446   -4.9613 C      0
   -1.2069    2.3367   -3.5642 C      0
   -2.4525    2.2076   -2.9127 C      0
   -2.4849    2.0436   -1.5572 C      0
   -1.3328    2.0429   -0.7776 C      0
   -0.0761    2.2459   -1.3429 C      0
   -0.0604    2.3346   -2.7484 C      0
    0.4217    3.1153    1.4561 C      0
    0.1598    3.9708    2.6755 C      0
    0.9514    4.2226    0.5377 C      0
    0.1271    5.1992   -0.2716 C      0
    2.4718    4.1263    0.5698 C      0
    3.4205    4.9756   -0.2465 C      0
    2.8609    2.8995    1.4024 C      0
    4.2571    2.3365    1.5503 C      0
    1.5862    2.2291    1.8991 C      0
    1.4904    0.9045    2.6234 C      0
    4.0794    1.3637   -1.4545 H      0
    2.4174    2.4261   -5.0935 H      0
    0.4161    2.5653   -6.5498 H      0
   -1.8334    2.4810   -5.6357 H      0
   -3.3741    2.2192   -3.4853 H      0
   -3.4451    1.9092   -1.0702 H      0
   -1.4314    1.8844    0.2900 H      0
   -0.8970    3.9608    2.9339 H      0
    0.4545    5.0022    2.4936 H      0
    0.7216    3.6039    3.5320 H      0
   -0.0166    4.8366   -1.2872 H      0
    0.6204    6.1675   -0.3251 H      0
   -0.8527    5.3428    0.1790 H      0
    3.0365    5.9879   -0.3543 H      0
    3.5548    4.5563   -1.2414 H      0
    4.3961    5.0324    0.2318 H      0
    4.4381    1.5507    0.8201 H      0
    4.3987    1.9143    2.5430 H      0
    5.0038    3.1141    1.4037 H      0
    0.4831    0.4991    2.5557 H      0
    1.7369    1.0240    3.6764 H      0
    2.1792    0.1781    2.1975 H      0
  1  2  1
  2  3  1
  3  4  2
  2  4  1
  4  5  1
  5  6  4
  6  7  4
  7  8  4
  8  9  4
  9 10  4
 10 11  4
 11 12  4
 12 13  4
  2 13  1
 13 14  4
  5 14  4
  9 14  4
  2 15  1
 15 16  1
 15 17  4
  2 17  1
 17 18  1
 17 19  4
  2 19  1
 19 20  1
 19 21  4
  2 21  1
 21 22  1
 21 23  4
  2 23  1
 15 23  4
 23 24  1
  3 25  1
  6 26  1
  7 27  1
  8 28  1
 10 29  1
 11 30  1
 12 31  1
 16 32  1
 16 33  1
 16 34  1
 18 35  1
 18 36  1
 18 37  1
 20 38  1
 20 39  1
 20 40  1
 22 41  1
 22 42  1
 22 43  1
 24 44  1
 24 45  1
 24 46  1
M  END
$$$$
