
     RDKit          3D

  0  0  0  0  0  0  0  0  0  0999 V3000
M  V30 BEGIN CTAB
M  V30 COUNTS 53 60 0 0 0
M  V30 BEGIN ATOM
M  V30 1 C 2.687100 -0.451062 4.157686 0
M  V30 2 C 1.978067 -0.328552 2.958875 0
M  V30 3 N 1.389022 -0.223835 1.921054 0
M  V30 4 Fe 0.396010 -0.051118 0.099269 0 CHG=3 VAL=6
M  V30 5 N 2.313695 -0.363983 -0.647533 0
M  V30 6 C 3.439176 -0.527014 -1.076907 0
M  V30 7 C 4.712985 -0.707135 -1.588204 0
M  V30 8 C -0.304321 -1.236257 -1.489272 0 RAD=2 VAL=3
M  V30 9 N -0.544766 -2.618883 -1.414312 0
M  V30 10 C 0.032223 -3.231535 -0.199065 0
M  V30 11 N -0.932407 -2.714067 0.789930 0
M  V30 12 C -1.719545 -3.037348 1.923775 0
M  V30 13 C -2.533576 -2.015067 2.186524 0
M  V30 14 N -2.284103 -0.981592 1.201855 0
M  V30 15 C -3.067011 0.216423 0.963557 0
M  V30 16 N -2.047706 1.195513 1.283084 0
M  V30 17 C -2.162525 2.144906 2.378951 0
M  V30 18 C -1.233480 3.109241 2.225512 0
M  V30 19 N -0.506952 2.783783 1.017163 0
M  V30 20 C 0.398727 3.590772 0.228613 0
M  V30 21 N 0.529650 2.805163 -0.974716 0
M  V30 22 C 1.247664 2.929861 -2.223902 0
M  V30 23 C 0.753399 2.092561 -3.154502 0
M  V30 24 N -0.312641 1.410129 -2.486929 0
M  V30 25 C -1.485592 0.658315 -2.752419 0
M  V30 26 N -1.105407 -0.701239 -2.400618 0
M  V30 27 C -1.620512 -1.822035 -3.128225 0
M  V30 28 C -1.299820 -2.974063 -2.562359 0
M  V30 29 C -0.124077 1.555834 -1.195768 0 RAD=2 VAL=3
M  V30 30 C -0.885238 1.493723 0.774372 0 RAD=2 VAL=3
M  V30 31 C -1.232265 -1.339116 0.571368 0 RAD=2 VAL=3
M  V30 32 H 3.273602 -1.395350 4.245539 0
M  V30 33 H 3.456950 0.352623 4.290738 0
M  V30 34 H 1.987509 -0.367230 5.008350 0
M  V30 35 H 5.403623 0.045672 -1.154355 0
M  V30 36 H 5.021412 -1.768362 -1.344041 0
M  V30 37 H 4.799736 -0.624089 -2.696384 0
M  V30 38 H 1.039137 -2.861067 -0.012555 0
M  V30 39 H -0.082161 -4.327650 -0.196983 0
M  V30 40 H -1.539449 -4.024902 2.375000 0
M  V30 41 H -3.228346 -2.085681 3.042928 0
M  V30 42 H -3.316059 0.230629 -0.129239 0
M  V30 43 H -3.968845 0.269839 1.571034 0
M  V30 44 H -2.842953 2.197061 3.253455 0
M  V30 45 H -1.080176 3.967195 2.903455 0
M  V30 46 H -0.051519 4.569589 0.072373 0
M  V30 47 H 1.340236 3.739850 0.774138 0
M  V30 48 H 2.090657 3.619020 -2.402855 0
M  V30 49 H 1.031224 1.916608 -4.179185 0
M  V30 50 H -1.736579 0.805092 -3.819723 0
M  V30 51 H -2.395366 0.998204 -2.196388 0
M  V30 52 H -2.208203 -1.897782 -4.029512 0
M  V30 53 H -1.470203 -4.021591 -2.762646 0
M  V30 END ATOM
M  V30 BEGIN BOND
M  V30 1 1 1 2
M  V30 2 3 2 3
M  V30 3 9 3 4
M  V30 4 9 5 4
M  V30 5 3 5 6
M  V30 6 1 6 7
M  V30 7 1 4 8
M  V30 8 1 8 9
M  V30 9 1 9 10
M  V30 10 1 10 11
M  V30 11 1 11 12
M  V30 12 2 12 13
M  V30 13 1 13 14
M  V30 14 1 14 15
M  V30 15 1 15 16
M  V30 16 1 16 17
M  V30 17 2 17 18
M  V30 18 1 18 19
M  V30 19 1 19 20
M  V30 20 1 20 21
M  V30 21 1 21 22
M  V30 22 2 22 23
M  V30 23 1 23 24
M  V30 24 1 24 25
M  V30 25 1 25 26
M  V30 26 1 26 27
M  V30 27 2 27 28
M  V30 28 1 24 29
M  V30 29 1 19 30
M  V30 30 1 14 31
M  V30 31 1 29 4
M  V30 32 1 30 4
M  V30 33 1 31 4
M  V30 34 1 26 8
M  V30 35 1 28 9
M  V30 36 1 31 11
M  V30 37 1 30 16
M  V30 38 1 29 21
M  V30 39 1 1 32
M  V30 40 1 1 33
M  V30 41 1 1 34
M  V30 42 1 7 35
M  V30 43 1 7 36
M  V30 44 1 7 37
M  V30 45 1 10 38
M  V30 46 1 10 39
M  V30 47 1 12 40
M  V30 48 1 13 41
M  V30 49 1 15 42
M  V30 50 1 15 43
M  V30 51 1 17 44
M  V30 52 1 18 45
M  V30 53 1 20 46
M  V30 54 1 20 47
M  V30 55 1 22 48
M  V30 56 1 23 49
M  V30 57 1 25 50
M  V30 58 1 25 51
M  V30 59 1 27 52
M  V30 60 1 28 53
M  V30 END BOND
M  V30 END CTAB
M  END
