
  --CCDC--092525    3D                              

114121  0  0  0  0  0  0  0  0999 V2000
    0.3510    0.1609   -0.6705 H      0
    0.8407    1.1218   -0.5515 C      0
    0.9336    1.9890   -1.6250 C      0
    0.5200    1.6951   -2.5840 H      0
    1.5570    3.2285   -1.5012 C      0
    1.6805    4.1132   -2.7307 C      0
    2.1759    5.0537   -2.4435 H      0
    2.5096    3.4253   -3.8145 C      0
    2.5956    4.0589   -4.6947 H      0
    2.0435    2.4898   -4.1174 H      0
    3.5125    3.2039   -3.4577 H      0
    0.3063    4.4322   -3.3162 C      0
    0.0719    3.7589   -4.1378 H      0
    0.2755    5.4523   -3.6935 H      0
   -0.4705    4.3234   -2.5656 H      0
    2.0552    3.5930   -0.2369 C      0
    2.6885    4.8588   -0.0840 N      0
    4.0630    5.0550   -0.4074 C      0
    4.6459    6.3228   -0.3279 C      0
    6.0509    6.2101   -0.7631 C      0
    7.1702    7.0075   -0.8734 C      0
    7.1212    8.0482   -0.5761 H      0
    8.3722    6.4863   -1.3398 C      0
    9.2314    7.1438   -1.4216 H      0
    8.5119    5.1736   -1.6912 C      0
    9.4660    4.8047   -2.0530 H      0
    7.4114    4.2957   -1.5721 C      0
    7.4085    2.9147   -1.8761 C      0
    8.3095    2.4388   -2.2488 H      0
    6.2710    2.1784   -1.6971 C      0
    6.2871    1.1204   -1.9374 H      0
    5.0944    2.7405   -1.2162 C      0
    4.2137    2.1207   -1.0842 H      0
    5.0403    4.0827   -0.9114 C      0
    6.2043    4.8493   -1.1001 C      0
    3.8616    7.4731    0.0423 N      0
    4.4249    8.7722   -0.2064 C      0
    4.8880    9.0716   -1.5242 C      0
    4.3184    8.5554   -2.8598 C      0
    3.4556    7.9269   -2.5913 H      0
    5.1954    7.7003   -3.7753 C      0
    4.6035    7.3073   -4.5991 H      0
    5.6311    6.8565   -3.2467 H      0
    5.9954    8.2941   -4.2109 H      0
    3.7899    9.6594   -3.7784 C      0
    3.2169    9.2269   -4.5961 H      0
    4.6084   10.2328   -4.2086 H      0
    3.1313   10.3422   -3.2477 H      0
    5.9093   10.0269   -1.6206 C      0
    6.4143   10.2140   -2.5594 H      0
    6.3082   10.7878   -0.5435 C      0
    7.1325   11.4867   -0.6390 H      0
    5.6062   10.6934    0.6351 C      0
    5.8313   11.3866    1.4381 H      0
    4.6031    9.7448    0.8065 C      0
    3.7727    9.9307    2.0603 C      0
    2.9793    9.1700    2.0992 H      0
    3.1729   11.3349    1.9983 C      0
    2.6179   11.4786    1.0731 H      0
    3.9539   12.0910    2.0408 H      0
    2.4995   11.5084    2.8343 H      0
    4.6200    9.8581    3.3305 C      0
    4.0319    9.4639    4.1566 H      0
    4.9730   10.8461    3.6173 H      0
    5.4879    9.2185    3.1932 H      0
    1.4329    6.9236    1.0036 Eu     0
    0.6683    9.2706    1.9970 N      0
    0.1870   10.3991    2.5223 C      0
   -0.4298   11.8451    3.1954 S      0
    0.6613    8.0112   -1.2946 O      0
    1.3364    9.1113   -1.8434 C      0
    1.4786    8.9783   -2.9137 H      0
    2.3092    9.2456   -1.3818 H      0
    0.7655   10.0246   -1.6910 H      0
   -0.7356    8.1603   -1.4288 C      0
   -1.0954    8.9835   -0.7993 H      0
   -0.9919    8.4147   -2.4645 H      0
   -1.3923    6.8709   -1.0307 C      0
   -2.4762    6.9226   -1.1937 H      0
   -1.0141    6.0467   -1.6424 H      0
   -1.1175    6.6422    0.3307 O      0
   -2.0547    7.2896    1.1533 C      0
   -3.0311    6.8155    1.0814 H      0
   -2.1620    8.3332    0.8645 H      0
   -1.7414    7.2662    2.1945 H      0
    2.6576    6.8625    3.3601 O      0
    4.0602    6.8940    3.3726 C      0
    4.4628    5.8835    3.3925 H      0
    4.4274    7.4220    4.2504 H      0
    4.4526    7.3846    2.4871 H      0
    2.2171    5.8584    4.2564 C      0
    2.7860    4.9361    4.0901 H      0
    2.4282    6.1641    5.2883 H      0
    0.7470    5.5831    4.0943 C      0
    0.4268    4.8018    4.7950 H      0
    0.1585    6.4800    4.3238 H      0
    0.5170    5.1726    2.7670 O      0
   -0.7277    4.5562    2.5582 C      0
   -0.8491    3.7016    3.2204 H      0
   -0.8139    4.2026    1.5327 H      0
   -1.5447    5.2471    2.7492 H      0
    2.0141    2.7068    0.8533 C      0
    2.6567    3.0459    2.1876 C      0
    2.7789    4.1381    2.2388 H      0
    4.0349    2.3951    2.2974 C      0
    4.6892    2.7359    1.4981 H      0
    4.5037    2.6415    3.2478 H      0
    3.9553    1.3119    2.2306 H      0
    1.8035    2.5864    3.3694 C      0
    2.1095    1.5967    3.7018 H      0
    0.7525    2.5385    3.0972 H      0
    1.9058    3.2720    4.2081 H      0
    1.3861    1.4748    0.6701 C      0
    1.3315    0.7691    1.4919 H      0
  1  2  1
  2  3  4
  3  4  1
  3  5  4
  5  6  1
  6  7  1
  6  8  1
  8  9  1
  8 10  1
  8 11  1
  6 12  1
 12 13  1
 12 14  1
 12 15  1
  5 16  4
 16 17  1
 17 18  1
 18 19  2
 19 20  1
 20 21  4
 21 22  1
 21 23  4
 23 24  1
 23 25  4
 25 26  1
 25 27  4
 27 28  4
 28 29  1
 28 30  4
 30 31  1
 30 32  4
 32 33  1
 32 34  4
 18 34  1
 34 35  4
 20 35  4
 27 35  4
 19 36  1
 36 37  1
 37 38  4
 38 39  1
 39 40  1
 39 41  1
 41 42  1
 41 43  1
 41 44  1
 39 45  1
 45 46  1
 45 47  1
 45 48  1
 38 49  4
 49 50  1
 49 51  4
 51 52  1
 51 53  4
 53 54  1
 53 55  4
 37 55  4
 55 56  1
 56 57  1
 56 58  1
 58 59  1
 58 60  1
 58 61  1
 56 62  1
 62 63  1
 62 64  1
 62 65  1
 36 66  1
 17 66  1
 66 67  1
 67 68  4
 68 69  4
 66 70  1
 70 71  1
 71 72  1
 71 73  1
 71 74  1
 70 75  1
 75 76  1
 75 77  1
 75 78  1
 78 79  1
 78 80  1
 78 81  1
 66 81  1
 81 82  1
 82 83  1
 82 84  1
 82 85  1
 66 86  1
 86 87  1
 87 88  1
 87 89  1
 87 90  1
 86 91  1
 91 92  1
 91 93  1
 91 94  1
 94 95  1
 94 96  1
 94 97  1
 66 97  1
 97 98  1
 98 99  1
 98100  1
 98101  1
 16102  4
102103  1
103104  1
103105  1
105106  1
105107  1
105108  1
103109  1
109110  1
109111  1
109112  1
102113  4
  2113  4
113114  1
M  END
$$$$
