
  --CCDC--092525    3D                              

 44 43  0  0  0  0  0  0  0  0999 V2000
   -0.1340    0.2279   -0.8531 H      0
    0.5322    0.9339   -0.3621 C      0
    0.8811    1.5955   -1.1516 H      0
    1.3989    0.3779   -0.0146 H      0
   -0.2710    1.9333    0.9524 P      0
   -1.5506    3.2174    0.7678 C      0
   -2.5609    2.8173    0.8280 H      0
   -1.4595    4.0302    1.4850 H      0
   -1.4579    3.6667   -0.2187 H      0
    0.9402    3.2334    0.5299 C      0
    0.9796    3.3674   -0.5487 H      0
    1.9446    2.9823    0.8628 H      0
    0.6760    4.2052    0.9422 H      0
   -0.3194    1.2947    2.4980 O      0
   -1.6376    1.4651    2.5150 N      0
   -2.5868    0.7441    2.0960 N      3
   -3.5376    0.2009    1.7678 N      5
    1.1144    1.2833    2.6151 C      0
    1.6458    1.2333    1.6818 H      0
    1.5321    0.4538    3.1588 H      0
    1.5301    2.1546    3.1116 H      0
   -0.3203    2.5997    3.0808 C      0
   -1.3460    2.9549    3.1463 H      0
    0.2110    3.3743    2.5587 H      0
    0.0398    2.6909    4.0900 H      0
   -0.3267   -0.0002    1.8789 C      0
    0.6571   -0.4415    1.7346 H      0
   -0.8518   -0.0594    0.9428 H      0
   -0.9242   -0.7328    2.3864 H      0
   -0.4792    0.5344    3.9758 P      0
   -1.8172    1.3205    4.9331 C      0
   -2.8056    1.1265    4.5196 H      0
   -1.6970    2.3952    5.0501 H      0
   -1.8212    0.9016    5.9372 H      0
    0.6587    0.9415    5.3466 C      0
    1.7036    0.8505    5.0593 H      0
    0.4938    0.2543    6.1736 H      0
    0.5048    1.9382    5.7533 H      0
    0.1639   -1.1785    4.1134 C      0
   -0.5841   -1.9356    3.8836 H      0
    0.4610   -1.3719    5.1414 H      0
    1.0322   -1.3715    3.4888 H      0
   -1.3499    1.5062    0.1652 H      0
   -1.6214   -0.2759    4.0420 H      0
  1  2  1
  2  3  1
  2  4  1
  2  5  1
  5  6  1
  6  7  1
  6  8  1
  6  9  1
  5 10  1
 10 11  1
 10 12  1
 10 13  1
  5 14  1
 14 15  1
 15 16  2
 16 17  2
 14 18  1
 18 19  1
 18 20  1
 18 21  1
 14 22  1
 22 23  1
 22 24  1
 22 25  1
 14 26  1
 26 27  1
 26 28  1
 26 29  1
 14 30  1
 30 31  1
 31 32  1
 31 33  1
 31 34  1
 30 35  1
 35 36  1
 35 37  1
 35 38  1
 30 39  1
 39 40  1
 39 41  1
 39 42  1
  5 43  1
 30 44  1
M  CHG  2  16   1  17  -1
M  END
$$$$
