
     RDKit          3D

 26 26  0  0  0  0  0  0  0  0999 V2000
   -3.2512    1.5347    0.2154 C   0  0  0  0  0  0  0  0  0  0  0  0
   -2.8699    0.0646    0.0843 C   0  0  0  0  0  0  0  0  0  0  0  0
   -3.5776   -0.5726   -1.1052 C   0  0  0  0  0  0  0  0  0  0  0  0
   -1.4541   -0.0463   -0.1560 O   0  0  0  0  0  0  0  0  0  0  0  0
   -0.6595   -0.0268    0.9417 C   0  0  0  0  0  0  0  0  0  0  0  0
   -1.0314    0.0738    2.0995 O   0  0  0  0  0  0  0  0  0  0  0  0
    0.7728   -0.1454    0.5506 C   0  0  0  0  0  0  0  0  0  0  0  0
    1.7388   -0.1403    1.5693 C   0  0  0  0  0  0  0  0  0  0  0  0
    3.0988   -0.2486    1.2604 C   0  0  0  0  0  0  0  0  0  0  0  0
    3.4950   -0.3628   -0.0784 C   0  0  0  0  0  0  0  0  0  0  0  0
    2.5404   -0.3691   -1.1047 C   0  0  0  0  0  0  0  0  0  0  0  0
    1.1816   -0.2603   -0.7872 C   0  0  0  0  0  0  0  0  0  0  0  0
    4.9216   -0.4768   -0.4095 N   0  0  0  0  0  0  0  0  0  0  0  0
    5.2284   -0.5758   -1.6060 O   0  0  0  0  0  0  0  0  0  0  0  0
    5.7329   -0.4672    0.5268 O   0  0  0  0  0  0  0  0  0  0  0  0
   -4.3308    1.6534    0.3493 H   0  0  0  0  0  0  0  0  0  0  0  0
   -2.9424    2.0997   -0.6711 H   0  0  0  0  0  0  0  0  0  0  0  0
   -2.7459    1.9942    1.0710 H   0  0  0  0  0  0  0  0  0  0  0  0
   -3.1497   -0.4860    0.9909 H   0  0  0  0  0  0  0  0  0  0  0  0
   -3.2821   -1.6226   -1.2056 H   0  0  0  0  0  0  0  0  0  0  0  0
   -3.2980   -0.0769   -2.0416 H   0  0  0  0  0  0  0  0  0  0  0  0
   -4.6651   -0.5256   -0.9936 H   0  0  0  0  0  0  0  0  0  0  0  0
    1.4337   -0.0516    2.6117 H   0  0  0  0  0  0  0  0  0  0  0  0
    3.8274   -0.2421    2.0691 H   0  0  0  0  0  0  0  0  0  0  0  0
    2.8341   -0.4572   -2.1494 H   0  0  0  0  0  0  0  0  0  0  0  0
    0.4524   -0.2667   -1.5951 H   0  0  0  0  0  0  0  0  0  0  0  0
  1  2  1  0
  2  3  1  0
  2  4  1  0
  4  5  1  0
  5  6  2  0
  5  7  1  0
  7  8  2  0
  8  9  1  0
  9 10  2  0
 10 11  1  0
 11 12  2  0
 10 13  1  0
 13 14  1  0
 13 15  2  0
 12  7  1  0
  1 16  1  0
  1 17  1  0
  1 18  1  0
  2 19  1  0
  3 20  1  0
  3 21  1  0
  3 22  1  0
  8 23  1  0
  9 24  1  0
 11 25  1  0
 12 26  1  0
M  CHG  2  13   1  14  -1
M  END
