
     RDKit          3D

 29 30  0  0  0  0  0  0  0  0999 V2000
    0.6618    4.3278    0.9970 Cl  0  0  0  0  0  0  0  0  0  0  0  0
    0.1129    2.7786    0.6064 Au  0  0  0  0  0  3  0  0  0  0  0  0
   -0.0100    0.8984    0.1484 C   0  0  0  0  0  0  0  0  0  0  0  0
    1.2890    0.3262    0.0484 N   0  0  0  0  0  0  0  0  0  0  0  0
    2.0342    0.3543   -1.2150 C   0  0  0  0  0  0  0  0  0  0  0  0
    3.3121   -0.3926   -0.9451 C   0  0  0  0  0  0  0  0  0  0  0  0
    3.0802   -1.1791    0.3295 C   0  0  0  0  0  0  0  0  0  0  0  0
    2.0689   -0.3398    1.0799 C   0  0  0  0  0  0  0  0  0  0  0  0
   -1.2761    0.2839   -0.0375 N   0  0  0  0  0  0  0  0  0  0  0  0
   -1.7597   -0.4136   -1.2117 C   0  0  0  0  0  0  0  0  0  0  0  0
   -3.0845   -1.0041   -0.7603 C   0  0  0  0  0  0  0  0  0  0  0  0
   -3.5825    0.0804    0.1784 C   0  0  0  0  0  0  0  0  0  0  0  0
   -2.3093    0.2848    1.0081 C   0  0  0  0  0  0  0  0  0  0  0  0
    2.2336    1.4089   -1.4887 H   0  0  0  0  0  0  0  0  0  0  0  0
    1.4109   -0.1389   -1.9967 H   0  0  0  0  0  0  0  0  0  0  0  0
    4.1198    0.3419   -0.7574 H   0  0  0  0  0  0  0  0  0  0  0  0
    3.5227   -1.0337   -1.8220 H   0  0  0  0  0  0  0  0  0  0  0  0
    2.6685   -2.1849    0.1305 H   0  0  0  0  0  0  0  0  0  0  0  0
    4.0209   -1.2309    0.9458 H   0  0  0  0  0  0  0  0  0  0  0  0
    2.5571    0.3999    1.7381 H   0  0  0  0  0  0  0  0  0  0  0  0
    1.4009   -0.9609    1.7186 H   0  0  0  0  0  0  0  0  0  0  0  0
   -1.0512   -1.1804   -1.5803 H   0  0  0  0  0  0  0  0  0  0  0  0
   -2.0136    0.3350   -1.9929 H   0  0  0  0  0  0  0  0  0  0  0  0
   -2.9371   -1.9039   -0.1394 H   0  0  0  0  0  0  0  0  0  0  0  0
   -3.7638   -1.1797   -1.6223 H   0  0  0  0  0  0  0  0  0  0  0  0
   -4.4338   -0.2294    0.7853 H   0  0  0  0  0  0  0  0  0  0  0  0
   -3.7811    0.9706   -0.4773 H   0  0  0  0  0  0  0  0  0  0  0  0
   -2.3283    1.2151    1.5800 H   0  0  0  0  0  0  0  0  0  0  0  0
   -2.1624   -0.6341    1.5767 H   0  0  0  0  0  0  0  0  0  0  0  0
  1  2  1  0
  2  3  2  3
  3  4  1  0
  4  5  1  0
  5  6  1  0
  6  7  1  0
  7  8  1  0
  3  9  1  0
  9 10  1  0
 10 11  1  0
 11 12  1  0
 12 13  1  0
  8  4  1  0
 13  9  1  0
  5 14  1  0
  5 15  1  0
  6 16  1  0
  6 17  1  0
  7 18  1  0
  7 19  1  0
  8 20  1  0
  8 21  1  0
 10 22  1  0
 10 23  1  0
 11 24  1  0
 11 25  1  0
 12 26  1  0
 12 27  1  0
 13 28  1  0
 13 29  1  0
M  END
