
  --CCDC--092525    3D                              

 80 84  0  0  0  0  0  0  0  0999 V2000
    1.0293    0.1555   -0.8939 Cl     0
    1.5903    2.4980   -0.4483 Ru     0
   -0.3556    2.8306    0.3676 C      0
   -0.5605    3.6412    1.6272 C      0
   -1.8557    3.6761    2.1622 C      0
   -2.1293    4.3285    3.3498 C      0
   -1.1088    4.9593    4.0247 C      0
    0.1785    4.9372    3.5137 C      0
    0.4816    4.2849    2.3150 C      0
    1.9051    4.3551    1.7831 C      0
    2.7745    4.9405    2.8858 C      0
    2.4337    3.0880    1.4258 N      0
    2.1327    2.1278    2.4282 C      0
    3.8425    3.1945    1.2804 C      0
    1.1749    4.1700   -2.1908 Cl     0
    3.5590    2.1701   -1.2189 C      0
    3.5617    2.1607   -2.7037 N      0
    4.3487    1.0230   -3.2131 C      0
    4.1345    0.0165   -2.1137 C      0
    4.0916    0.8370   -0.8870 N      0
    5.1642    0.7379    0.0675 C      0
    4.9085    0.0571    1.2619 C      0
    3.5754   -0.5804    1.5514 C      0
    5.9230   -0.0278    2.2101 C      0
    7.1717    0.5342    2.0059 C      0
    8.2515    0.4360    3.0557 C      0
    7.4059    1.1662    0.7961 C      0
    6.4345    1.2677   -0.1958 C      0
    6.8251    1.8855   -1.5122 C      0
    3.5718    3.4219   -3.4339 C      0
    2.8786    3.4872   -4.6626 C      0
    1.8958    2.4595   -5.1657 C      0
    3.0257    4.6076   -5.4736 C      0
    3.7617    5.7108   -5.0940 C      0
    3.9148    6.9075   -6.0009 C      0
    4.3156    5.6875   -3.8303 C      0
    4.2196    4.5922   -2.9764 C      0
    4.8256    4.8235   -1.6178 C      0
   -1.2209    2.4023   -0.1349 H      0
   -2.6648    3.1779    1.6301 H      0
   -3.1428    4.3432    3.7479 H      0
   -1.3137    5.4761    4.9611 H      0
    0.9748    5.4409    4.0598 H      0
    1.9480    5.0326    0.9197 H      0
    2.7002    4.3446    3.7931 H      0
    2.4499    5.9516    3.1225 H      0
    3.8217    4.9964    2.5960 H      0
    1.3424    1.4490    2.1142 H      0
    1.8209    2.6159    3.3492 H      0
    3.0106    1.5262    2.6497 H      0
    4.1093    4.0844    0.7141 H      0
    4.2476    2.3306    0.7658 H      0
    4.3488    3.2345    2.2425 H      0
    5.4014    1.2803   -3.3212 H      0
    3.9631    0.6637   -4.1660 H      0
    4.9570   -0.6962   -2.0748 H      0
    3.1967   -0.5186   -2.2552 H      0
    3.5346   -1.5914    1.1520 H      0
    2.7679   -0.0054    1.1033 H      0
    3.3987   -0.6330    2.6236 H      0
    5.7281   -0.5487    3.1418 H      0
    8.1346   -0.4707    3.6455 H      0
    9.2368    0.4158    2.5947 H      0
    8.2109    1.2876    3.7315 H      0
    8.3872    1.5902    0.6105 H      0
    7.1465    1.1206   -2.2161 H      0
    7.6450    2.5878   -1.3786 H      0
    5.9868    2.4205   -1.9533 H      0
    1.1811    2.9121   -5.8499 H      0
    1.3415    2.0189   -4.3396 H      0
    2.4106    1.6595   -5.6937 H      0
    2.5294    4.6204   -6.4383 H      0
    3.0485    7.0123   -6.6507 H      0
    4.7983    6.8059   -6.6276 H      0
    4.0150    7.8216   -5.4195 H      0
    4.8500    6.5662   -3.4846 H      0
    4.0589    4.8258   -0.8460 H      0
    5.3368    5.7835   -1.5857 H      0
    5.5504    4.0496   -1.3800 H      0
    4.2344    2.9414   -0.8516 H      0
  1  2  1
  2  3  2
  3  4  1
  4  5  4
  5  6  4
  6  7  4
  7  8  4
  8  9  4
  4  9  4
  9 10  1
 10 11  1
 10 12  1
  2 12  1
 12 13  1
 12 14  1
  2 15  1
  2 16  1
 16 17  1
 17 18  1
 18 19  1
 19 20  1
 16 20  1
 20 21  1
 21 22  4
 22 23  1
 22 24  4
 24 25  4
 25 26  1
 25 27  4
 27 28  4
 21 28  4
 28 29  1
 17 30  1
 30 31  4
 31 32  1
 31 33  4
 33 34  4
 34 35  1
 34 36  4
 36 37  4
 30 37  4
 37 38  1
  3 39  1
  5 40  1
  6 41  1
  7 42  1
  8 43  1
 10 44  1
 11 45  1
 11 46  1
 11 47  1
 13 48  1
 13 49  1
 13 50  1
 14 51  1
 14 52  1
 14 53  1
 18 54  1
 18 55  1
 19 56  1
 19 57  1
 23 58  1
 23 59  1
 23 60  1
 24 61  1
 26 62  1
 26 63  1
 26 64  1
 27 65  1
 29 66  1
 29 67  1
 29 68  1
 32 69  1
 32 70  1
 32 71  1
 33 72  1
 35 73  1
 35 74  1
 35 75  1
 36 76  1
 38 77  1
 38 78  1
 38 79  1
 16 80  1
M  END
$$$$
