
 OpenBabel09252518403D

 32 35  0  0  0  0  0  0  0  0999 V2000
    1.8890    1.1092   -0.7894 H   0  0  0  0  0  0  0  0  0  0  0  0
    2.4253    0.3356   -0.2505 C   0  0  0  0  0  3  0  0  0  0  0  0
    1.8245   -0.9797   -0.1333 C   0  0  0  0  0  3  0  0  0  0  0  0
    0.8492   -1.1678   -0.5663 H   0  0  0  0  0  0  0  0  0  0  0  0
    2.6354   -2.0927    0.3202 C   0  0  0  0  0  3  0  0  0  0  0  0
    2.1777   -3.0651    0.4488 H   0  0  0  0  0  0  0  0  0  0  0  0
    4.0616   -1.9072    0.5200 C   0  0  0  0  0  3  0  0  0  0  0  0
    4.6938   -0.5696    0.5516 C   0  0  0  0  0  3  0  0  0  0  0  0
    3.8506    0.5175    0.0075 C   0  0  0  0  0  3  0  0  0  0  0  0
    4.3221    1.3338   -0.5217 H   0  0  0  0  0  0  0  0  0  0  0  0
    6.1376   -0.4644    0.8997 C   0  0  0  0  0  0  0  0  0  0  0  0
    6.8644   -1.6152    0.8636 C   0  0  0  0  0  0  0  0  0  0  0  0
    6.2366   -2.9433    0.5696 C   0  0  0  0  0  0  0  0  0  0  0  0
    6.9046   -3.9660    0.4369 O   0  0  0  0  0  0  0  0  0  0  0  0
    4.8761   -2.9952    0.5115 N   0  0  0  0  0  0  0  0  0  0  0  0
    4.4881   -3.9174    0.3664 H   0  0  0  0  0  0  0  0  0  0  0  0
    8.3397   -1.6842    1.1754 C   0  0  0  0  0  0  0  0  0  0  0  0
    8.8985   -1.4786    0.2530 H   0  0  0  0  0  0  0  0  0  0  0  0
    8.6380   -2.6866    1.5036 H   0  0  0  0  0  0  0  0  0  0  0  0
    8.7538   -0.7119    2.2709 C   0  0  0  0  0  0  0  0  0  0  0  0
    9.8492   -0.6747    2.3134 H   0  0  0  0  0  0  0  0  0  0  0  0
    8.4095   -1.0839    3.2445 H   0  0  0  0  0  0  0  0  0  0  0  0
    8.1837    0.6490    2.0475 C   0  0  0  0  0  3  0  0  0  0  0  0
    8.8633    1.7959    2.6386 C   0  0  0  0  0  3  0  0  0  0  0  0
    9.8223    1.6728    3.1275 H   0  0  0  0  0  0  0  0  0  0  0  0
    8.2209    3.0921    2.6590 C   0  0  0  0  0  3  0  0  0  0  0  0
    8.6798    3.9210    3.1828 H   0  0  0  0  0  0  0  0  0  0  0  0
    6.9212    3.2457    2.0458 C   0  0  0  0  0  3  0  0  0  0  0  0
    6.3878    4.1842    2.1314 H   0  0  0  0  0  0  0  0  0  0  0  0
    6.3326    2.1460    1.2960 C   0  0  0  0  0  3  0  0  0  0  0  0
    5.6526    2.4318    0.5108 H   0  0  0  0  0  0  0  0  0  0  0  0
    6.8464    0.7628    1.3925 C   0  0  0  0  0  3  0  0  0  0  0  0
  1  2  1  0  0  0  0
  2  3  1  0  0  0  0
  2  9  1  0  0  0  0
  3  4  1  0  0  0  0
  3  5  1  0  0  0  0
  5  6  1  0  0  0  0
  5  7  1  0  0  0  0
  7  8  1  0  0  0  0
  7 15  1  0  0  0  0
  8  9  1  0  0  0  0
  8 11  1  0  0  0  0
  9 10  1  0  0  0  0
 11 12  2  0  0  0  0
 11 32  1  0  0  0  0
 12 13  1  0  0  0  0
 12 17  1  0  0  0  0
 13 14  2  0  0  0  0
 13 15  1  0  0  0  0
 15 16  1  0  0  0  0
 17 18  1  0  0  0  0
 17 19  1  0  0  0  0
 17 20  1  0  0  0  0
 20 21  1  0  0  0  0
 20 22  1  0  0  0  0
 20 23  1  0  0  0  0
 23 24  1  0  0  0  0
 23 32  1  0  0  0  0
 24 25  1  0  0  0  0
 24 26  1  0  0  0  0
 26 27  1  0  0  0  0
 26 28  1  0  0  0  0
 28 29  1  0  0  0  0
 28 30  1  0  0  0  0
 30 31  1  0  0  0  0
 30 32  1  0  0  0  0
M  END
$$$$
