
  --CCDC--092525    3D                              

 35 38  0  0  0  0  0  0  0  0999 V2000
   -0.6286    0.0714   -0.1302 F      0
    0.3476    0.9670   -0.0360 C      0
    0.7946    1.1500   -1.2732 F      0
    1.3319    0.3651    0.6217 F      0
   -0.0927    2.2384    0.6155 C      0
    0.4511    2.6404    1.8263 C      0
    0.0347    3.8155    2.4238 C      0
   -0.9395    4.5983    1.8274 C      0
   -1.5127    4.2125    0.6173 C      0
   -1.0658    3.0325    0.0205 C      0
   -2.5139    5.0434   -0.0038 N      0
   -2.2231    6.4685   -0.0379 C      0
   -3.0430    7.2733   -1.0078 C      0
   -2.6889    9.0125   -0.7104 Cl     0
   -2.6007    6.9818   -2.4130 O      0
   -3.7865    6.5549   -3.1501 C      0
   -3.4214    6.7450   -5.0519 Br     0
   -4.1465    5.1319   -2.7039 C      0
   -4.6514    5.3557   -1.1841 C      0
   -4.4966    6.8684   -1.1165 C      0
   -4.9505    7.3233   -2.5182 C      0
   -5.1124    9.4391   -2.8354 I      0
   -3.7031    4.5040   -0.3793 C      0
   -4.1209    3.4496    0.0785 O      0
    1.2093    2.0304    2.3061 H      0
    0.4712    4.1243    3.3679 H      0
   -1.2564    5.5052    2.3310 H      0
   -1.4681    2.7279   -0.9392 H      0
   -1.1740    6.5906   -0.3033 H      0
   -2.3943    6.8698    0.9599 H      0
   -3.2765    4.4777   -2.7368 H      0
   -4.9384    4.7142   -3.3237 H      0
   -5.6872    5.0471   -1.0507 H      0
   -5.1042    7.3075   -0.3266 H      0
   -5.8922    6.8401   -2.7745 H      0
  1  2  1
  2  3  1
  2  4  1
  2  5  1
  5  6  4
  6  7  4
  7  8  4
  8  9  4
  9 10  4
  5 10  4
  9 11  1
 11 12  1
 12 13  1
 13 14  1
 13 15  1
 15 16  1
 16 17  1
 16 18  1
 18 19  1
 19 20  1
 13 20  1
 20 21  1
 16 21  1
 21 22  1
 19 23  1
 11 23  1
 23 24  2
  6 25  1
  7 26  1
  8 27  1
 10 28  1
 12 29  1
 12 30  1
 18 31  1
 18 32  1
 19 33  1
 20 34  1
 21 35  1
M  END
$$$$
