
 OpenBabel09252517553D

 73 77  0  0  0  0  0  0  0  0999 V2000
    0.9490    0.0620    0.0596 Cl  0  0  0  0  0  0  0  0  0  0  0  0
    3.3790    0.0620    0.0596 Ir  0  0  0  0  0  0  0  0  0  0  0  0
    3.3790    1.5117    0.2506 N   0  0  0  0  0  0  0  0  0  0  0  0
    2.7801    2.0913    1.3491 C   0  0  0  0  0  0  0  0  0  0  0  0
    2.1637    1.3155    2.3258 C   0  0  0  0  0  0  0  0  0  0  0  0
    2.1430   -0.1870    2.2054 C   0  0  0  0  0  0  0  0  0  0  0  0
    3.3790   -0.6388    1.4202 P   0  0  0  0  0  4  0  0  0  0  0  0
    3.3407   -2.4535    1.1871 C   0  0  0  0  0  0  0  0  0  0  0  0
    4.5680   -2.8896    0.4035 C   0  0  0  0  0  0  0  0  0  0  0  0
    3.3360   -3.1386    2.5439 C   0  0  0  0  0  0  0  0  0  0  0  0
    4.8935   -0.1899    2.3442 C   0  0  0  0  0  0  0  0  0  0  0  0
    4.9416    1.3171    2.5368 C   0  0  0  0  0  0  0  0  0  0  0  0
    4.8804   -0.8740    3.7015 C   0  0  0  0  0  0  0  0  0  0  0  0
    1.5679    1.9180    3.4133 C   0  0  0  0  0  0  0  0  0  0  0  0
    1.5766    3.2995    3.5482 C   0  0  0  0  0  0  0  0  0  0  0  0
    2.1780    4.0825    2.6067 C   0  0  0  0  0  0  0  0  0  0  0  0
    2.7928    3.4939    1.4910 C   0  0  0  0  0  0  0  0  0  0  0  0
    3.3872    4.2730    0.5674 C   0  0  0  0  0  0  0  0  0  0  0  0
    3.9655    3.7566   -0.4786 C   0  0  0  0  0  0  0  0  0  0  0  0
    4.6298    4.6613   -1.5036 C   0  0  0  0  0  0  0  0  0  0  0  0
    4.6201    6.0103   -1.3281 C   0  0  0  0  0  0  0  0  0  0  0  0
    3.1655    0.7442   -2.4405 C   0  0  0  0  0  0  0  0  0  0  0  0
    3.2994    2.0243   -2.0001 C   0  0  0  0  0  0  0  0  0  0  0  0
    6.4690   -0.9885    1.4283 C   0  0  0  0  0  0  0  0  0  0  0  0
    5.8590    0.0620    0.0596 P   0  0  0  0  0  4  0  0  0  0  0  0
    6.4690   -0.5981   -1.5345 C   0  0  0  0  0  0  0  0  0  0  0  0
    5.9623    0.2744   -2.6713 C   0  0  0  0  0  0  0  0  0  0  0  0
    7.9890   -0.5981   -1.5345 C   0  0  0  0  0  0  0  0  0  0  0  0
    6.4690    1.7726    0.2850 C   0  0  0  0  0  0  0  0  0  0  0  0
    5.9623    2.6451   -0.8519 C   0  0  0  0  0  0  0  0  0  0  0  0
    5.9623    2.3208    1.6090 C   0  0  0  0  0  0  0  0  0  0  0  0
    3.9762    2.3029   -0.6679 C   0  0  0  0  0  3  0  0  0  0  0  0
    3.3790   -1.6433   -0.1651 H   0  0  0  0  0  0  0  0  0  0  0  0
    3.3790    0.8495   -1.4695 H   0  0  0  0  0  0  0  0  0  0  0  0
    1.2555   -0.4976    1.6947 H   0  0  0  0  0  0  0  0  0  0  0  0
    2.1571   -0.6258    3.1811 H   0  0  0  0  0  0  0  0  0  0  0  0
    2.4577   -2.7252    0.6473 H   0  0  0  0  0  0  0  0  0  0  0  0
    5.4510   -2.6179    0.9433 H   0  0  0  0  0  0  0  0  0  0  0  0
    4.5456   -3.9507    0.2672 H   0  0  0  0  0  0  0  0  0  0  0  0
    4.5713   -2.4073   -0.5516 H   0  0  0  0  0  0  0  0  0  0  0  0
    2.4721   -2.8316    3.0956 H   0  0  0  0  0  0  0  0  0  0  0  0
    3.3137   -4.1997    2.4076 H   0  0  0  0  0  0  0  0  0  0  0  0
    4.2190   -2.8669    3.0838 H   0  0  0  0  0  0  0  0  0  0  0  0
    5.7544   -0.5067    1.7933 H   0  0  0  0  0  0  0  0  0  0  0  0
    4.0807    1.6339    3.0876 H   0  0  0  0  0  0  0  0  0  0  0  0
    5.8271    1.5795    3.0770 H   0  0  0  0  0  0  0  0  0  0  0  0
    4.9508    1.7986    1.5813 H   0  0  0  0  0  0  0  0  0  0  0  0
    4.8466   -1.9348    3.5659 H   0  0  0  0  0  0  0  0  0  0  0  0
    5.7660   -0.6115    4.2417 H   0  0  0  0  0  0  0  0  0  0  0  0
    4.0196   -0.5572    4.2523 H   0  0  0  0  0  0  0  0  0  0  0  0
    1.0945    1.3153    4.1600 H   0  0  0  0  0  0  0  0  0  0  0  0
    1.1083    3.7534    4.3965 H   0  0  0  0  0  0  0  0  0  0  0  0
    2.1810    5.1466    2.7191 H   0  0  0  0  0  0  0  0  0  0  0  0
    3.3842    5.3353    0.6954 H   0  0  0  0  0  0  0  0  0  0  0  0
    5.1051    4.2371   -2.3633 H   0  0  0  0  0  0  0  0  0  0  0  0
    4.1447    6.4345   -0.4684 H   0  0  0  0  0  0  0  0  0  0  0  0
    2.6891    0.5481   -3.3783 H   0  0  0  0  0  0  0  0  0  0  0  0
    7.5390   -0.9884    1.4283 H   0  0  0  0  0  0  0  0  0  0  0  0
    6.1123   -0.6025    2.3603 H   0  0  0  0  0  0  0  0  0  0  0  0
    6.1123   -1.5983   -1.6662 H   0  0  0  0  0  0  0  0  0  0  0  0
    6.3190    1.2746   -2.5396 H   0  0  0  0  0  0  0  0  0  0  0  0
    6.3190   -0.1116   -3.6034 H   0  0  0  0  0  0  0  0  0  0  0  0
    4.8923    0.2744   -2.6713 H   0  0  0  0  0  0  0  0  0  0  0  0
    8.3456   -1.2123   -0.7342 H   0  0  0  0  0  0  0  0  0  0  0  0
    8.3456   -0.9841   -2.4665 H   0  0  0  0  0  0  0  0  0  0  0  0
    8.3456    0.4021   -1.4027 H   0  0  0  0  0  0  0  0  0  0  0  0
    7.5390    1.7726    0.2850 H   0  0  0  0  0  0  0  0  0  0  0  0
    4.8923    2.6451   -0.8519 H   0  0  0  0  0  0  0  0  0  0  0  0
    6.3190    3.6452   -0.7201 H   0  0  0  0  0  0  0  0  0  0  0  0
    6.3190    2.2591   -1.7839 H   0  0  0  0  0  0  0  0  0  0  0  0
    6.3190    1.7067    2.4093 H   0  0  0  0  0  0  0  0  0  0  0  0
    6.3190    3.3210    1.7408 H   0  0  0  0  0  0  0  0  0  0  0  0
    4.8923    2.3208    1.6090 H   0  0  0  0  0  0  0  0  0  0  0  0
  1  2  1  0  0  0  0
  2  3  1  0  0  0  0
  2  7  1  0  0  0  0
  2 25  1  0  0  0  0
  2 33  1  0  0  0  0
  2 34  1  0  0  0  0
  3  4  1  0  0  0  0
  3 32  1  0  0  0  0
  4  5  1  0  0  0  0
  4 17  2  0  0  0  0
  5  6  1  0  0  0  0
  5 14  2  0  0  0  0
  6  7  1  0  0  0  0
  6 35  1  0  0  0  0
  6 36  1  0  0  0  0
  7  8  1  0  0  0  0
  7 11  1  0  0  0  0
  8  9  1  0  0  0  0
  8 10  1  0  0  0  0
  8 37  1  0  0  0  0
  9 38  1  0  0  0  0
  9 39  1  0  0  0  0
  9 40  1  0  0  0  0
 10 41  1  0  0  0  0
 10 42  1  0  0  0  0
 10 43  1  0  0  0  0
 11 12  1  0  0  0  0
 11 13  1  0  0  0  0
 11 44  1  0  0  0  0
 12 45  1  0  0  0  0
 12 46  1  0  0  0  0
 12 47  1  0  0  0  0
 13 48  1  0  0  0  0
 13 49  1  0  0  0  0
 13 50  1  0  0  0  0
 14 15  1  0  0  0  0
 14 51  1  0  0  0  0
 15 16  2  0  0  0  0
 15 52  1  0  0  0  0
 16 17  1  0  0  0  0
 16 53  1  0  0  0  0
 17 18  1  0  0  0  0
 18 19  2  0  0  0  0
 18 54  1  0  0  0  0
 19 20  1  0  0  0  0
 19 32  1  0  0  0  0
 20 21  2  0  0  0  0
 20 55  1  0  0  0  0
 21 22  1  0  0  0  0
 21 56  1  0  0  0  0
 22 23  2  0  0  0  0
 22 57  1  0  0  0  0
 23 24  1  0  0  0  0
 23 32  1  0  0  0  0
 24 25  1  0  0  0  0
 24 58  1  0  0  0  0
 24 59  1  0  0  0  0
 25 26  1  0  0  0  0
 25 29  1  0  0  0  0
 26 27  1  0  0  0  0
 26 28  1  0  0  0  0
 26 60  1  0  0  0  0
 27 61  1  0  0  0  0
 27 62  1  0  0  0  0
 27 63  1  0  0  0  0
 28 64  1  0  0  0  0
 28 65  1  0  0  0  0
 28 66  1  0  0  0  0
 29 30  1  0  0  0  0
 29 31  1  0  0  0  0
 29 67  1  0  0  0  0
 30 68  1  0  0  0  0
 30 69  1  0  0  0  0
 30 70  1  0  0  0  0
 31 71  1  0  0  0  0
 31 72  1  0  0  0  0
 31 73  1  0  0  0  0
M  END
$$$$
