
  --CCDC--092525    3D                              

 57 64  0  0  0  0  0  0  0  0999 V2000
    0.3830   -0.1642    0.3555 C      0
    1.7103   -0.0959   -0.2445 C      0
    2.7464   -0.0668   -0.7282 N      0
    4.7216   -0.0126   -1.6987 Fe     1
    5.2567    0.1302    0.4279 N      0
    5.5342    0.2042    1.5307 C      0
    5.8408    0.3000    2.9503 C      0
    5.1211   -2.1790   -2.0435 C      0
    4.6197   -2.7727   -3.2252 N      0
    3.2169   -2.6065   -3.4916 C      0
    3.2916   -1.3492   -4.2019 N      0
    3.3858   -1.1327   -5.5814 C      0
    3.3883    0.1914   -5.7572 C      0
    3.3102    0.7549   -4.4805 N      0
    3.1879    2.1549   -4.1420 C      0
    4.5106    2.4817   -3.6685 N      0
    5.5041    3.1630   -4.3780 C      0
    6.5418    3.2736   -3.5480 C      0
    6.1531    2.6507   -2.3576 N      0
    6.8996    2.5560   -1.1265 C      0
    7.4560    1.2226   -0.9926 N      0
    8.5021    0.9276   -0.1162 C      0
    8.6417   -0.3921   -0.1429 C      0
    7.6787   -0.8755   -1.0369 N      0
    7.4223   -2.2965   -1.2017 C      0
    6.4693   -2.5705   -2.2501 N      0
    6.7210   -3.3160   -3.4053 C      0
    5.5496   -3.4371   -4.0275 C      0
    6.9434    0.1246   -1.7636 C      0
    4.8425    2.1193   -2.3379 C      0
    3.2906   -0.1761   -3.4125 C      0
   -0.2120    0.6936    0.0498 H      0
    0.4367   -0.1717    1.4424 H      0
   -0.1382   -1.0642    0.0360 H      0
    5.9362   -0.6941    3.3879 H      0
    5.0465    0.8235    3.4741 H      0
    6.7742    0.8299    3.1136 H      0
    2.8318   -3.4234   -4.1150 H      0
    2.6403   -2.5251   -2.5612 H      0
    3.4279   -1.8889   -6.3584 H      0
    3.4212    0.7252   -6.7023 H      0
    2.9249    2.7568   -5.0211 H      0
    2.4356    2.3057   -3.3575 H      0
    5.4389    3.5340   -5.3956 H      0
    7.4916    3.7575   -3.7517 H      0
    7.6973    3.3077   -1.1097 H      0
    6.2255    2.7514   -0.2828 H      0
    9.0482    1.6251    0.5126 H      0
    9.3275   -0.9762    0.4649 H      0
    8.3535   -2.8379   -1.4123 H      0
    7.0098   -2.6932   -0.2664 H      0
    7.6762   -3.7283   -3.7183 H      0
    5.3534   -3.9514   -4.9631 H      0
    4.7175   -2.7341   -1.1834 H      0
    7.2990    0.1866   -2.8037 H      0
    4.2270    2.7209   -1.6502 H      0
    2.2885   -0.1033   -2.9625 H      0
  1  2  1
  2  3  3
  3  4  1
  4  5  1
  5  6  3
  6  7  1
  4  8  1
  8  9  1
  9 10  1
 10 11  1
 11 12  1
 12 13  2
 13 14  1
 14 15  1
 15 16  1
 16 17  1
 17 18  2
 18 19  1
 19 20  1
 20 21  1
 21 22  1
 22 23  2
 23 24  1
 24 25  1
 25 26  1
  8 26  1
 26 27  1
 27 28  2
  9 28  1
 24 29  1
  4 29  1
 21 29  1
 19 30  1
  4 30  1
 16 30  1
 14 31  1
  4 31  1
 11 31  1
  1 32  1
  1 33  1
  1 34  1
  7 35  1
  7 36  1
  7 37  1
 10 38  1
 10 39  1
 12 40  1
 13 41  1
 15 42  1
 15 43  1
 17 44  1
 18 45  1
 20 46  1
 20 47  1
 22 48  1
 23 49  1
 25 50  1
 25 51  1
 27 52  1
 28 53  1
  8 54  1
 29 55  1
 30 56  1
 31 57  1
M  CHG  1   4   3
M  END
$$$$
