
 OpenBabel09252518583D

 73 85  0  0  0  0  0  0  0  0999 V2000
    0.9880   -0.0744   -0.0658 Cl  0  0  0  0  0  0  0  0  0  0  0  0
    3.7580   -0.0744   -0.0658 Zr  0  0  0  0  0  0  0  0  0  0  0  0
    2.6593   -1.7631   -1.9668 Cl  0  0  0  0  0  0  0  0  0  0  0  0
    1.7364    0.0449    1.9546 C   0  0  0  0  0  0  0  0  0  0  0  0
    1.0446   -2.1413   -0.7493 C   0  0  0  0  0  0  0  0  0  0  0  0
    1.7085   -1.4250    0.1977 C   0  0  0  0  0  0  0  0  0  0  0  0
    1.7084   -2.6934    0.6809 C   0  0  0  0  0  0  0  0  0  0  0  0
    2.4724   -3.0295    1.7737 C   0  0  0  0  0  0  0  0  0  0  0  0
    2.9552   -2.0446    2.6056 C   0  0  0  0  0  0  0  0  0  0  0  0
    2.9980   -0.7491    2.1964 C   0  0  0  0  0  0  0  0  0  0  0  0
    2.5385   -0.3405    0.8235 C   0  0  0  0  0  0  0  0  0  0  0  0
    1.7099    0.9432    0.9333 C   0  0  0  0  0  0  0  0  0  0  0  0
    1.2395    1.3674   -0.4583 Si  0  0  0  0  0  0  0  0  0  0  0  0
    0.2202    2.9293   -0.3227 C   0  0  0  0  0  0  0  0  0  0  0  0
    0.1976    0.0064   -1.2059 C   0  0  0  0  0  0  0  0  0  0  0  0
    2.4559    1.6275   -1.3503 Si  0  0  0  0  0  0  0  0  0  0  0  0
    1.8822    2.1448   -3.0534 C   0  0  0  0  0  0  0  0  0  0  0  0
    3.4968    2.9901   -0.6042 C   0  0  0  0  0  0  0  0  0  0  0  0
    3.2895    0.3493   -1.4583 C   0  0  0  0  0  0  0  0  0  0  0  0
    5.7364   -3.0333   -1.2649 C   0  0  0  0  0  3  0  0  0  0  0  0
    4.8875   -1.7759   -1.3584 C   0  0  0  0  0  0  0  0  0  0  0  0
    4.3205   -1.4246   -2.5441 C   0  0  0  0  0  0  0  0  0  0  0  0
    4.5162   -2.1902   -3.6167 C   0  0  0  0  0  0  0  0  0  0  0  0
    3.9756   -1.8716   -4.7850 C   0  0  0  0  0  0  0  0  0  0  0  0
    3.1843   -0.7085   -4.8923 C   0  0  0  0  0  0  0  0  0  0  0  0
    2.9898    0.0557   -3.7926 C   0  0  0  0  0  0  0  0  0  0  0  0
    3.5707   -0.3091   -2.6150 C   0  0  0  0  0  0  0  0  0  0  0  0
    4.6224   -0.7120    0.1564 Si  0  0  0  0  0  0  0  0  0  0  0  0
    5.2808    1.0081   -0.1671 C   0  0  0  0  0  0  0  0  0  0  0  0
    2.7946   -0.6179    0.5399 C   0  0  0  0  0  0  0  0  0  0  0  0
    5.5268   -1.4622    1.6111 C   0  0  0  0  0  0  0  0  0  0  0  0
    0.3893   -1.2878   -2.2787 Si  0  0  0  0  0  0  0  0  0  0  0  0
   -0.8301    0.0386   -1.7782 C   0  0  0  0  0  0  0  0  0  0  0  0
    1.8087   -0.5087   -3.2142 C   0  0  0  0  0  0  0  0  0  0  0  0
   -0.4659   -2.5399   -3.3732 C   0  0  0  0  0  0  0  0  0  0  0  0
    1.1070   -3.4403    0.2061 H   0  0  0  0  0  0  0  0  0  0  0  0
    2.6918   -4.0567    1.9775 H   0  0  0  0  0  0  0  0  0  0  0  0
    3.3005   -2.3017    3.5852 H   0  0  0  0  0  0  0  0  0  0  0  0
    3.3675   -0.0018    2.8670 H   0  0  0  0  0  0  0  0  0  0  0  0
   -0.1089    3.2261   -1.2966 H   0  0  0  0  0  0  0  0  0  0  0  0
   -0.6300    2.7473    0.3010 H   0  0  0  0  0  0  0  0  0  0  0  0
    0.8162    3.7082    0.1051 H   0  0  0  0  0  0  0  0  0  0  0  0
    0.7808   -0.8873   -1.2837 H   0  0  0  0  0  0  0  0  0  0  0  0
   -0.6525   -0.1755   -0.5822 H   0  0  0  0  0  0  0  0  0  0  0  0
   -0.1316    0.3034   -2.1798 H   0  0  0  0  0  0  0  0  0  0  0  0
    1.2990    3.0386   -2.9771 H   0  0  0  0  0  0  0  0  0  0  0  0
    2.7330    2.3261   -3.6765 H   0  0  0  0  0  0  0  0  0  0  0  0
    1.2865    1.3656   -3.4810 H   0  0  0  0  0  0  0  0  0  0  0  0
    3.8249    2.6952    0.3705 H   0  0  0  0  0  0  0  0  0  0  0  0
    4.3475    3.1709   -1.2275 H   0  0  0  0  0  0  0  0  0  0  0  0
    2.9134    3.8840   -0.5289 H   0  0  0  0  0  0  0  0  0  0  0  0
    5.1163   -3.0722   -3.5347 H   0  0  0  0  0  0  0  0  0  0  0  0
    4.1386   -2.4927   -5.6409 H   0  0  0  0  0  0  0  0  0  0  0  0
    2.7447   -0.4350   -5.8287 H   0  0  0  0  0  0  0  0  0  0  0  0
    2.3861    0.9374   -3.8471 H   0  0  0  0  0  0  0  0  0  0  0  0
    4.7633    1.4374   -0.9995 H   0  0  0  0  0  0  0  0  0  0  0  0
    5.1291    1.6169    0.6996 H   0  0  0  0  0  0  0  0  0  0  0  0
    6.3266    0.9543   -0.3866 H   0  0  0  0  0  0  0  0  0  0  0  0
    2.4179   -1.6021    0.7250 H   0  0  0  0  0  0  0  0  0  0  0  0
    2.6429   -0.0091    1.4067 H   0  0  0  0  0  0  0  0  0  0  0  0
    2.2771   -0.1886   -0.2924 H   0  0  0  0  0  0  0  0  0  0  0  0
    5.1501   -2.4464    1.7962 H   0  0  0  0  0  0  0  0  0  0  0  0
    6.5727   -1.5160    1.3916 H   0  0  0  0  0  0  0  0  0  0  0  0
    5.3751   -0.8534    2.4778 H   0  0  0  0  0  0  0  0  0  0  0  0
   -0.3407    0.7550   -1.1520 H   0  0  0  0  0  0  0  0  0  0  0  0
   -1.2050    0.5270   -2.6533 H   0  0  0  0  0  0  0  0  0  0  0  0
   -1.6422   -0.4072   -1.2429 H   0  0  0  0  0  0  0  0  0  0  0  0
    2.5065   -1.2677   -3.5006 H   0  0  0  0  0  0  0  0  0  0  0  0
    1.4338   -0.0203   -4.0893 H   0  0  0  0  0  0  0  0  0  0  0  0
    2.2981    0.2077   -2.5880 H   0  0  0  0  0  0  0  0  0  0  0  0
    0.2318   -3.2989   -3.6596 H   0  0  0  0  0  0  0  0  0  0  0  0
   -1.2781   -2.9857   -2.8379 H   0  0  0  0  0  0  0  0  0  0  0  0
   -0.8409   -2.0515   -4.2483 H   0  0  0  0  0  0  0  0  0  0  0  0
  1  2  1  0  0  0  0
  2  3  1  0  0  0  0
  2  4  1  0  0  0  0
  2  5  1  0  0  0  0
  2  6  1  0  0  0  0
  2 11  1  0  0  0  0
  2 12  1  0  0  0  0
  2 19  1  0  0  0  0
  2 20  1  0  0  0  0
  2 21  1  0  0  0  0
  2 22  1  0  0  0  0
  2 27  1  0  0  0  0
  4  5  1  0  0  0  0
  4 12  2  0  0  0  0
  5  6  2  0  0  0  0
  5 32  1  0  0  0  0
  6  7  1  0  0  0  0
  6 11  1  0  0  0  0
  7  8  2  0  0  0  0
  7 36  1  0  0  0  0
  8  9  1  0  0  0  0
  8 37  1  0  0  0  0
  9 10  2  0  0  0  0
  9 38  1  0  0  0  0
 10 11  1  0  0  0  0
 10 39  1  0  0  0  0
 11 12  1  0  0  0  0
 12 13  1  0  0  0  0
 13 14  1  0  0  0  0
 13 15  1  0  0  0  0
 13 16  1  0  0  0  0
 14 40  1  0  0  0  0
 14 41  1  0  0  0  0
 14 42  1  0  0  0  0
 15 43  1  0  0  0  0
 15 44  1  0  0  0  0
 15 45  1  0  0  0  0
 16 17  1  0  0  0  0
 16 18  1  0  0  0  0
 16 19  1  0  0  0  0
 17 46  1  0  0  0  0
 17 47  1  0  0  0  0
 17 48  1  0  0  0  0
 18 49  1  0  0  0  0
 18 50  1  0  0  0  0
 18 51  1  0  0  0  0
 19 20  1  0  0  0  0
 19 27  2  0  0  0  0
 20 21  1  0  0  0  0
 21 22  2  0  0  0  0
 21 28  1  0  0  0  0
 22 23  1  0  0  0  0
 22 27  1  0  0  0  0
 23 24  2  0  0  0  0
 23 52  1  0  0  0  0
 24 25  1  0  0  0  0
 24 53  1  0  0  0  0
 25 26  2  0  0  0  0
 25 54  1  0  0  0  0
 26 27  1  0  0  0  0
 26 55  1  0  0  0  0
 28 29  1  0  0  0  0
 28 30  1  0  0  0  0
 28 31  1  0  0  0  0
 29 56  1  0  0  0  0
 29 57  1  0  0  0  0
 29 58  1  0  0  0  0
 30 59  1  0  0  0  0
 30 60  1  0  0  0  0
 30 61  1  0  0  0  0
 31 62  1  0  0  0  0
 31 63  1  0  0  0  0
 31 64  1  0  0  0  0
 32 33  1  0  0  0  0
 32 34  1  0  0  0  0
 32 35  1  0  0  0  0
 33 65  1  0  0  0  0
 33 66  1  0  0  0  0
 33 67  1  0  0  0  0
 34 68  1  0  0  0  0
 34 69  1  0  0  0  0
 34 70  1  0  0  0  0
 35 71  1  0  0  0  0
 35 72  1  0  0  0  0
 35 73  1  0  0  0  0
M  END
$$$$
