
  --CCDC--092525    3D                              

 64 65  0  0  0  0  0  0  0  0999 V2000
    0.2211    0.8775   -0.8650 H      0
    0.7520    1.1670    0.0407 C      0
    1.0492    0.2740    0.5884 H      0
   -0.2074    1.9399    0.9081 C      0
   -1.3642    2.3556    0.4397 N      0
   -1.9630    3.0943    1.3921 N      0
   -3.1214    3.7959    1.1724 O      0
   -3.5206    3.0864   -0.0381 C      0
   -4.4228    3.4783   -0.5069 H      0
   -3.7332    2.0407    0.0529 H      0
   -2.8154    3.0766   -0.8680 H      0
   -4.4122    4.3917    1.2460 C      0
   -4.5611    5.1497    0.4835 H      0
   -4.6103    4.8420    2.2076 H      0
   -5.2354    3.7253    1.0250 H      0
   -2.5435    4.6417    0.1263 C      0
   -3.1823    4.8098   -0.7400 H      0
   -1.5866    4.3224   -0.2871 H      0
   -2.3317    5.6661    0.3641 H      0
   -3.7976    2.5657    2.1403 P      0
   -3.0287    0.9219    1.9110 C      0
   -2.9015    0.6086    0.8784 H      0
   -3.6532    0.1641    2.3792 H      0
   -2.0584    0.8630    2.3944 H      0
   -5.3622    2.8857    3.0353 C      0
   -5.5420    2.0629    3.7240 H      0
   -6.2319    2.9202    2.3830 H      0
   -5.3573    3.7920    3.6328 H      0
   -3.4063    2.1656    3.8757 C      0
   -3.7167    1.1430    4.0772 H      0
   -3.9661    2.7698    4.5824 H      0
   -2.3551    2.2190    4.1367 H      0
   -2.6011    5.0592    2.1527 P      0
   -2.7479    4.8757    3.9515 C      0
   -3.7644    4.6587    4.2571 H      0
   -2.4907    5.8268    4.4130 H      0
   -2.0632    4.1517    4.3821 H      0
   -1.0358    5.9755    2.2811 C      0
   -0.2399    5.3417    2.6658 H      0
   -1.1432    6.8247    2.9527 H      0
   -0.7265    6.3524    1.3085 H      0
   -3.4620    6.6561    1.8279 C      0
   -3.7391    6.8373    0.7910 H      0
   -2.8135    7.4752    2.1317 H      0
   -4.3699    6.7596    2.4188 H      0
   -1.1610    3.1360    2.4705 N      0
   -0.0753    2.4396    2.2110 C      0
    1.0560    2.3552    3.1844 C      0
    1.4854    1.3559    3.1304 H      0
    0.6647    2.5285    4.1858 H      0
    2.1564    3.3696    2.9132 C      0
    3.0458    3.0408    3.4488 H      0
    1.8260    4.3276    3.3121 H      0
    2.5477    3.5872    1.4694 C      0
    3.3740    4.2962    1.4511 H      0
    1.6903    4.0155    0.9525 H      0
    2.9870    2.3309    0.6933 C      0
    3.1001    1.5128    1.4032 H      0
    3.9468    2.5383    0.2225 H      0
    2.0187    1.8972   -0.3779 C      0
    1.7106    2.7934   -0.9145 H      0
    2.5612    1.2379   -1.0537 H      0
   -4.8284    1.9325    1.4309 H      0
   -1.4077    4.6761    1.5325 H      0
  1  2  1
  2  3  1
  2  4  1
  4  5  2
  5  6  1
  6  7  1
  7  8  1
  8  9  1
  8 10  1
  8 11  1
  7 12  1
 12 13  1
 12 14  1
 12 15  1
  7 16  1
 16 17  1
 16 18  1
 16 19  1
  7 20  1
 20 21  1
 21 22  1
 21 23  1
 21 24  1
 20 25  1
 25 26  1
 25 27  1
 25 28  1
 20 29  1
 29 30  1
 29 31  1
 29 32  1
  7 33  1
 33 34  1
 34 35  1
 34 36  1
 34 37  1
 33 38  1
 38 39  1
 38 40  1
 38 41  1
 33 42  1
 42 43  1
 42 44  1
 42 45  1
  6 46  1
 46 47  2
  4 47  1
 47 48  1
 48 49  1
 48 50  1
 48 51  1
 51 52  1
 51 53  1
 51 54  1
 54 55  1
 54 56  1
 54 57  1
 57 58  1
 57 59  1
 57 60  1
  2 60  1
 60 61  1
 60 62  1
 20 63  1
 33 64  1
M  END
$$$$
