
 OpenBabel09252516473D

 43 45  0  0  0  0  0  0  0  0999 V2000
    0.9625    0.0800   -0.0468 C   0  0  0  0  0  0  0  0  0  0  0  0
    0.4558   -0.9783   -1.0131 C   0  0  0  0  0  0  0  0  0  0  0  0
    0.9458   -2.2994   -0.5939 N   0  0  0  0  0  4  0  0  0  0  0  0
    0.2558   -2.7183    1.3122 Pt  0  0  0  0  0  0  0  0  0  0  0  0
    0.2575   -4.2220    1.4737 N   0  0  0  0  0  4  0  0  0  0  0  0
    1.3920   -4.4046    2.9042 C   0  0  0  0  0  0  0  0  0  0  0  0
    0.8430   -5.1594    4.1038 C   0  0  0  0  0  0  0  0  0  0  0  0
    1.7403   -2.6766    3.1551 C   0  0  0  0  0  0  0  0  0  0  0  0
    2.4836   -2.0712    4.0159 C   0  0  0  0  0  0  0  0  0  0  0  0
    2.5998   -0.6741    4.0025 C   0  0  0  0  0  0  0  0  0  0  0  0
    1.8793    0.0518    3.0399 C   0  0  0  0  0  0  0  0  0  0  0  0
    1.1129   -0.5844    2.1537 C   0  0  0  0  0  0  0  0  0  0  0  0
    1.0048   -2.0053    2.1686 C   0  0  0  0  0  0  0  0  0  0  0  0
   -1.6963   -2.1477    1.6976 N   0  0  0  0  0  0  0  0  0  0  0  0
   -2.2256   -2.3713    2.8811 C   0  0  0  0  0  0  0  0  0  0  0  0
   -2.7369   -2.5874    4.0244 O   0  0  0  0  0  0  0  0  0  0  0  0
   -1.0642   -0.9783   -1.0131 C   0  0  0  0  0  0  0  0  0  0  0  0
   -1.7879   -2.2009   -0.9378 C   0  0  0  0  0  0  0  0  0  0  0  0
   -3.1602   -2.2087   -1.2366 C   0  0  0  0  0  0  0  0  0  0  0  0
   -3.8164   -1.0883   -1.3108 C   0  0  0  0  0  0  0  0  0  0  0  0
   -3.1584    0.1276   -1.0824 C   0  0  0  0  0  0  0  0  0  0  0  0
   -1.7428    0.1681   -1.0837 C   0  0  0  0  0  0  0  0  0  0  0  0
    0.6058   -0.1366    0.9385 H   0  0  0  0  0  0  0  0  0  0  0  0
    0.6058    1.0416   -0.3519 H   0  0  0  0  0  0  0  0  0  0  0  0
    2.0325    0.0800   -0.0468 H   0  0  0  0  0  0  0  0  0  0  0  0
    0.8125   -0.7618   -1.9984 H   0  0  0  0  0  0  0  0  0  0  0  0
    0.6058   -3.0095   -1.2423 H   0  0  0  0  0  0  0  0  0  0  0  0
    1.9658   -2.2994   -0.5939 H   0  0  0  0  0  0  0  0  0  0  0  0
   -0.6651   -4.6357    1.6080 H   0  0  0  0  0  0  0  0  0  0  0  0
    0.6207   -4.6894    0.6431 H   0  0  0  0  0  0  0  0  0  0  0  0
    2.2699   -4.9646    2.6578 H   0  0  0  0  0  0  0  0  0  0  0  0
    0.6254   -6.1683    3.8214 H   0  0  0  0  0  0  0  0  0  0  0  0
    1.5696   -5.1578    4.8893 H   0  0  0  0  0  0  0  0  0  0  0  0
   -0.0525   -4.6836    4.4454 H   0  0  0  0  0  0  0  0  0  0  0  0
    3.0174   -2.6402    4.7482 H   0  0  0  0  0  0  0  0  0  0  0  0
    3.2245   -0.1713    4.7109 H   0  0  0  0  0  0  0  0  0  0  0  0
    1.9457    1.1196    3.0178 H   0  0  0  0  0  0  0  0  0  0  0  0
    0.5722   -0.0210    1.4222 H   0  0  0  0  0  0  0  0  0  0  0  0
   -1.2914   -3.1059   -0.6561 H   0  0  0  0  0  0  0  0  0  0  0  0
   -3.6660   -3.1368   -1.4032 H   0  0  0  0  0  0  0  0  0  0  0  0
   -4.8601   -1.0949   -1.5465 H   0  0  0  0  0  0  0  0  0  0  0  0
   -3.7221    1.0201   -0.9081 H   0  0  0  0  0  0  0  0  0  0  0  0
   -1.2258    1.1032   -1.1404 H   0  0  0  0  0  0  0  0  0  0  0  0
  1  2  1  0  0  0  0
  1 23  1  0  0  0  0
  1 24  1  0  0  0  0
  1 25  1  0  0  0  0
  2  3  1  0  0  0  0
  2 17  1  0  0  0  0
  2 26  1  0  0  0  0
  3  4  1  0  0  0  0
  3 27  1  0  0  0  0
  3 28  1  0  0  0  0
  4  5  1  0  0  0  0
  4 13  1  0  0  0  0
  4 14  1  0  0  0  0
  5  6  1  0  0  0  0
  5 29  1  0  0  0  0
  5 30  1  0  0  0  0
  6  7  1  0  0  0  0
  6  8  1  0  0  0  0
  6 31  1  0  0  0  0
  7 32  1  0  0  0  0
  7 33  1  0  0  0  0
  7 34  1  0  0  0  0
  8  9  1  0  0  0  0
  8 13  2  0  0  0  0
  9 10  2  0  0  0  0
  9 35  1  0  0  0  0
 10 11  1  0  0  0  0
 10 36  1  0  0  0  0
 11 12  2  0  0  0  0
 11 37  1  0  0  0  0
 12 13  1  0  0  0  0
 12 38  1  0  0  0  0
 14 15  2  0  0  0  0
 15 16  2  0  0  0  0
 17 18  1  0  0  0  0
 17 22  2  0  0  0  0
 18 19  2  0  0  0  0
 18 39  1  0  0  0  0
 19 20  1  0  0  0  0
 19 40  1  0  0  0  0
 20 21  2  0  0  0  0
 20 41  1  0  0  0  0
 21 22  1  0  0  0  0
 21 42  1  0  0  0  0
 22 43  1  0  0  0  0
M  END
$$$$
