
 OpenBabel09252514213D

 49 54  0  0  0  0  0  0  0  0999 V2000
    1.0481   -0.0692    0.0539 C   0  0  0  0  0  0  0  0  0  0  0  0
    0.5414    0.3886    1.4119 C   0  0  0  0  0  0  0  0  0  0  0  0
    0.8593   -0.2876    2.4947 N   0  0  0  0  0  0  0  0  0  0  0  0
    1.7044   -1.4859    2.3913 C   0  0  0  0  0  0  0  0  0  0  0  0
    2.9710   -1.2845    3.2071 C   0  0  0  0  0  0  0  0  0  0  0  0
    2.6038   -1.0476    4.6629 C   0  0  0  0  0  0  0  0  0  0  0  0
    1.8688   -2.2116    5.1785 N   0  0  0  0  0  0  0  0  0  0  0  0
    2.3663   -3.3999    4.8950 C   0  0  0  0  0  0  0  0  0  0  0  0
    1.7818   -4.4944    5.3812 C   0  0  0  0  0  0  0  0  0  0  0  0
    0.6286   -4.3839    6.1881 C   0  0  0  0  0  0  0  0  0  0  0  0
    0.1349   -3.1720    6.4673 O   0  0  0  0  0  0  0  0  0  0  0  0
    0.7263   -2.0957    5.9910 Cu  0  0  0  0  0  0  0  0  0  0  0  0
   -0.6320   -1.1255    4.9260 O   0  0  0  0  0  0  0  0  0  0  0  0
   -0.2900    0.0908    4.2780 C   0  0  0  0  0  0  0  0  0  0  0  0
    0.7465    0.1148    3.3037 C   0  0  0  0  0  0  0  0  0  0  0  0
    1.3802    1.3312    3.0017 C   0  0  0  0  0  0  0  0  0  0  0  0
    0.8536    2.4541    3.3933 C   0  0  0  0  0  0  0  0  0  0  0  0
   -0.3518    2.4532    4.1077 C   0  0  0  0  0  0  0  0  0  0  0  0
   -0.8300    1.2455    4.6719 C   0  0  0  0  0  0  0  0  0  0  0  0
    0.0201   -5.5480    6.7097 C   0  0  0  0  0  0  0  0  0  0  0  0
    0.5131   -6.7773    6.4530 C   0  0  0  0  0  0  0  0  0  0  0  0
    1.6609   -6.9554    5.6473 C   0  0  0  0  0  0  0  0  0  0  0  0
    2.1672   -8.2365    5.3848 C   0  0  0  0  0  0  0  0  0  0  0  0
    3.2773   -8.3784    4.6046 C   0  0  0  0  0  0  0  0  0  0  0  0
    3.9173   -7.2689    4.0644 C   0  0  0  0  0  0  0  0  0  0  0  0
    3.4497   -6.0083    4.3020 C   0  0  0  0  0  0  0  0  0  0  0  0
    2.3150   -5.8300    5.0960 C   0  0  0  0  0  0  0  0  0  0  0  0
    0.6914    0.5976   -0.7032 H   0  0  0  0  0  0  0  0  0  0  0  0
    0.6914   -1.0582   -0.1450 H   0  0  0  0  0  0  0  0  0  0  0  0
    2.1181   -0.0692    0.0539 H   0  0  0  0  0  0  0  0  0  0  0  0
    0.5193    0.0196    3.4060 H   0  0  0  0  0  0  0  0  0  0  0  0
    1.1694   -2.3332    2.7667 H   0  0  0  0  0  0  0  0  0  0  0  0
    1.9629   -1.6527    1.3665 H   0  0  0  0  0  0  0  0  0  0  0  0
    3.5862   -2.1568    3.1318 H   0  0  0  0  0  0  0  0  0  0  0  0
    3.5060   -0.4373    2.8317 H   0  0  0  0  0  0  0  0  0  0  0  0
    3.4955   -0.9058    5.2371 H   0  0  0  0  0  0  0  0  0  0  0  0
    1.9887   -0.1754    4.7381 H   0  0  0  0  0  0  0  0  0  0  0  0
    1.1612   -1.6613    5.6653 H   0  0  0  0  0  0  0  0  0  0  0  0
    3.2357   -3.4848    4.2771 H   0  0  0  0  0  0  0  0  0  0  0  0
    1.0405   -0.7855    2.8058 H   0  0  0  0  0  0  0  0  0  0  0  0
    2.2965    1.3342    2.4492 H   0  0  0  0  0  0  0  0  0  0  0  0
    1.3414    3.3798    3.1696 H   0  0  0  0  0  0  0  0  0  0  0  0
   -0.9078    3.3597    4.2263 H   0  0  0  0  0  0  0  0  0  0  0  0
   -0.8519   -5.4522    7.3224 H   0  0  0  0  0  0  0  0  0  0  0  0
    0.0256   -7.6348    6.8677 H   0  0  0  0  0  0  0  0  0  0  0  0
    1.6849   -9.0992    5.7948 H   0  0  0  0  0  0  0  0  0  0  0  0
    3.6607   -9.3574    4.4056 H   0  0  0  0  0  0  0  0  0  0  0  0
    4.7865   -7.4044    3.4552 H   0  0  0  0  0  0  0  0  0  0  0  0
    3.9504   -5.1612    3.8818 H   0  0  0  0  0  0  0  0  0  0  0  0
  1  2  1  0  0  0  0
  1 28  1  0  0  0  0
  1 29  1  0  0  0  0
  1 30  1  0  0  0  0
  2  3  2  0  0  0  0
  2 19  1  0  0  0  0
  3  4  1  0  0  0  0
  3 12  1  0  0  0  0
  3 31  1  0  0  0  0
  4  5  1  0  0  0  0
  4 32  1  0  0  0  0
  4 33  1  0  0  0  0
  5  6  1  0  0  0  0
  5 34  1  0  0  0  0
  5 35  1  0  0  0  0
  6  7  1  0  0  0  0
  6 36  1  0  0  0  0
  6 37  1  0  0  0  0
  7  8  2  0  0  0  0
  7 12  1  0  0  0  0
  7 38  1  0  0  0  0
  8  9  1  0  0  0  0
  8 39  1  0  0  0  0
  9 10  1  0  0  0  0
  9 27  2  0  0  0  0
 10 11  1  0  0  0  0
 10 20  2  0  0  0  0
 11 12  1  0  0  0  0
 12 13  1  0  0  0  0
 13 14  1  0  0  0  0
 14 15  1  0  0  0  0
 14 19  2  0  0  0  0
 15 16  2  0  0  0  0
 15 40  1  0  0  0  0
 16 17  1  0  0  0  0
 16 41  1  0  0  0  0
 17 18  2  0  0  0  0
 17 42  1  0  0  0  0
 18 19  1  0  0  0  0
 18 43  1  0  0  0  0
 20 21  1  0  0  0  0
 20 44  1  0  0  0  0
 21 22  2  0  0  0  0
 21 45  1  0  0  0  0
 22 23  1  0  0  0  0
 22 27  1  0  0  0  0
 23 24  2  0  0  0  0
 23 46  1  0  0  0  0
 24 25  1  0  0  0  0
 24 47  1  0  0  0  0
 25 26  2  0  0  0  0
 25 48  1  0  0  0  0
 26 27  1  0  0  0  0
 26 49  1  0  0  0  0
M  END
$$$$
