
  --CCDC--092525    3D                              

114121  0  0  0  0  0  0  0  0999 V2000
    1.2902   -1.7436   -0.5969 C      0
    2.5537   -1.2987   -1.0323 O      0
    3.5260   -2.0999   -0.3977 C      0
    4.8761   -1.6724   -0.8902 C      0
    5.1049   -0.3082   -0.6153 O      0
    6.2993    0.0630   -1.2479 C      0
    3.0344    1.3217   -0.9410 Eu     0
    0.9827    0.6055    0.6056 N      0
   -0.0554    0.2615    1.3731 C      0
   -1.3739   -0.2013    2.3640 S      0
    0.9928    2.9288   -1.2621 N      0
    0.1605    2.6860   -2.4668 C      0
   -1.1126    3.2127   -2.8237 C      0
   -1.6653    2.9515   -4.0869 C      0
   -0.8344    2.7308   -5.1554 C      0
    0.4196    2.3021   -4.8172 C      0
    0.5734    1.8145   -3.5171 C      0
    0.8477    0.3095   -3.4833 C      0
   -0.4150   -0.5266   -3.2520 C      0
    1.3808   -0.1344   -4.8468 C      0
   -1.9198    4.1627   -1.9970 C      0
   -2.1557    5.5079   -2.6825 C      0
   -3.2334    3.5666   -1.5063 C      0
    1.1512    3.7754   -0.0391 C      0
    2.2406    3.6012    0.9281 C      0
    3.4335    2.7891    1.2070 N      0
    4.5845    1.9528    1.4163 C      0
    5.8901    2.3947    1.0590 C      0
    6.9596    1.5400    1.3174 C      0
    6.7811    0.2757    1.8423 C      0
    5.5278   -0.1056    2.2771 C      0
    4.4446    0.7747    2.2016 C      0
    3.2405    0.5060    3.1024 C      0
    2.4911   -0.8027    2.8321 C      0
    3.7435    0.4232    4.5401 C      0
    6.3067    3.7589    0.5119 C      0
    7.1764    3.6542   -0.7399 C      0
    7.2586    4.4305    1.5040 C      0
    2.1236    4.5472    2.0318 C      0
    2.8853    4.8873    3.1286 C      0
    2.3210    5.6132    4.1632 C      0
    1.0374    6.0728    4.0882 C      0
    0.3008    5.9137    2.8842 C      0
   -0.9635    6.4610    2.5911 C      0
   -1.3569    6.4592    1.2880 C      0
   -0.5985    5.8693    0.2850 C      0
    0.3765    4.9255    0.5544 C      0
    0.8860    5.1416    1.8548 C      0
    3.5684    1.3050   -3.5410 O      0
    4.6171    0.4861   -3.9997 C      0
    3.6884    2.6277   -4.0287 C      0
    4.7908    3.2911   -3.2535 C      0
    4.3724    3.4080   -1.9086 O      0
    3.7820    4.6795   -1.7349 C      0
    0.4984   -1.0831   -0.9329 H      0
    1.2500   -1.7891    0.4910 H      0
    1.0582   -2.7379   -0.9687 H      0
    3.3689   -3.1589   -0.6419 H      0
    3.4420   -2.0197    0.6953 H      0
    5.6644   -2.2829   -0.4332 H      0
    4.9345   -1.8373   -1.9725 H      0
    7.1687   -0.2265   -0.6588 H      0
    6.3304    1.1399   -1.3767 H      0
    6.3778   -0.3895   -2.2345 H      0
   -2.7340    2.9939   -4.2681 H      0
   -1.1545    2.8633   -6.1849 H      0
    1.1878    2.2141   -5.5778 H      0
    1.5885    0.0527   -2.7230 H      0
   -1.1459   -0.3668   -4.0418 H      0
   -0.8809   -0.2816   -2.2993 H      0
   -0.1721   -1.5894   -3.2405 H      0
    0.5720   -0.1530   -5.5769 H      0
    2.1596    0.5383   -5.2026 H      0
    1.8006   -1.1340   -4.8158 H      0
   -1.2278    4.3409   -1.1884 H      0
   -2.8230    5.3923   -3.5344 H      0
   -1.2177    5.9212   -3.0483 H      0
   -2.5902    6.2232   -1.9886 H      0
   -3.8873    3.3451   -2.3471 H      0
   -3.7432    4.2737   -0.8566 H      0
   -3.0634    2.6466   -0.9509 H      0
    7.9632    1.8747    1.0802 H      0
    7.6229   -0.4039    1.9270 H      0
    5.4187   -1.0981    2.7011 H      0
    2.5254    1.3334    3.0303 H      0
    1.5290   -0.8066    3.3422 H      0
    3.0590   -1.6603    3.1871 H      0
    2.3106   -0.9436    1.7695 H      0
    2.9397    0.1948    5.2349 H      0
    4.1788    1.3709    4.8256 H      0
    4.5071   -0.3447    4.6455 H      0
    5.4269    4.3958    0.3249 H      0
    6.7152    3.0694   -1.5281 H      0
    8.1155    3.1730   -0.4747 H      0
    7.4136    4.6388   -1.1418 H      0
    8.1572    3.8232    1.6146 H      0
    6.8145    4.5428    2.4875 H      0
    7.5606    5.4158    1.1542 H      0
    3.9118    4.5380    3.2077 H      0
    2.9117    5.8112    5.0522 H      0
    0.6064    6.5853    4.9425 H      0
   -1.5757    6.9220    3.3601 H      0
   -2.2676    6.9780    1.0097 H      0
   -0.7671    6.2268   -0.7188 H      0
    4.4594   -0.5450   -3.6913 H      0
    5.5658    0.8057   -3.5838 H      0
    4.7099    0.5143   -5.0841 H      0
    3.8905    2.6558   -5.1065 H      0
    2.7508    3.1738   -3.8730 H      0
    5.7243    2.7250   -3.3196 H      0
    4.9941    4.2870   -3.6712 H      0
    2.7771    4.7083   -2.1570 H      0
    3.7095    4.9509   -0.6858 H      0
    4.3657    5.4538   -2.2279 H      0
  1  2  1
  2  3  1
  3  4  1
  4  5  1
  5  6  1
  5  7  1
  2  7  1
  7  8  1
  8  9  4
  9 10  4
  7 11  1
 11 12  1
 12 13  4
 13 14  4
 14 15  4
 15 16  4
 16 17  4
 12 17  4
 17 18  1
 18 19  1
 18 20  1
 13 21  1
 21 22  1
 21 23  1
 11 24  1
 24 25  2
 25 26  1
  7 26  1
 26 27  1
 27 28  4
 28 29  4
 29 30  4
 30 31  4
 31 32  4
 27 32  4
 32 33  1
 33 34  1
 33 35  1
 28 36  1
 36 37  1
 36 38  1
 25 39  1
 39 40  4
 40 41  4
 41 42  4
 42 43  4
 43 44  4
 44 45  4
 45 46  4
 46 47  4
 24 47  1
 47 48  4
 39 48  4
 43 48  4
  7 49  1
 49 50  1
 49 51  1
 51 52  1
 52 53  1
  7 53  1
 53 54  1
  1 55  1
  1 56  1
  1 57  1
  3 58  1
  3 59  1
  4 60  1
  4 61  1
  6 62  1
  6 63  1
  6 64  1
 14 65  1
 15 66  1
 16 67  1
 18 68  1
 19 69  1
 19 70  1
 19 71  1
 20 72  1
 20 73  1
 20 74  1
 21 75  1
 22 76  1
 22 77  1
 22 78  1
 23 79  1
 23 80  1
 23 81  1
 29 82  1
 30 83  1
 31 84  1
 33 85  1
 34 86  1
 34 87  1
 34 88  1
 35 89  1
 35 90  1
 35 91  1
 36 92  1
 37 93  1
 37 94  1
 37 95  1
 38 96  1
 38 97  1
 38 98  1
 40 99  1
 41100  1
 42101  1
 44102  1
 45103  1
 46104  1
 50105  1
 50106  1
 50107  1
 51108  1
 51109  1
 52110  1
 52111  1
 54112  1
 54113  1
 54114  1
M  END
$$$$
