
  --CCDC--092525    3D                              

 87103  0  0  0  0  0  0  0  0999 V2000
   -0.1050    0.1794   -0.1028 H      0
   -1.8698    0.3925   -0.0604 Ru     0
   -1.2589    2.2015    1.4382 Cl     0
    0.6348    1.7874   -0.0275 Ru     0
   -1.0915    2.0124   -1.8189 P      3
   -0.4369    1.3460   -3.3710 C      0
   -0.2574   -0.0173   -3.5865 C      0
    0.2324   -0.4816   -4.7971 C      0
    0.5553    0.4079   -5.8001 C      0
    0.4282    1.7634   -5.5787 C      0
   -0.0492    2.2318   -4.3655 C      0
   -1.7783    3.7004   -1.8545 C      0
   -2.2771    4.2174   -3.0466 C      0
   -2.8907    5.4618   -3.0819 C      0
   -3.0830    6.1811   -1.9229 C      0
   -2.5824    5.6954   -0.7388 C      0
   -1.8843    4.5017   -0.7187 C      0
    1.6724    2.9110   -1.3737 C      0
    2.9534    3.4952   -1.9295 C      0
    2.2103    1.4591   -1.2278 C      0
    2.4613    0.5726   -2.4256 C      0
    2.3977    0.8181    0.1602 C      0
    2.6771   -0.6669    0.2694 C      0
    2.0282    1.6057    1.4185 C      0
    1.9582    0.8855    2.7498 C      0
    1.4448    3.0471    1.2899 C      0
    0.8364    3.6934    2.5150 C      0
    1.2499    3.7190   -0.1100 C      0
    2.1988    4.8684    0.1697 C      0
   -2.1800   -1.4637   -0.8606 C      0
   -3.0590   -2.5866   -1.3840 C      0
   -3.0303   -0.3497   -1.5234 C      0
   -3.1710   -0.2112   -3.0223 C      0
   -3.7556    0.7228   -0.6835 C      0
   -4.3420    1.9415   -1.3768 C      0
   -3.6342    0.6949    0.8554 C      0
   -4.1007    1.9273    1.6081 C      0
   -2.7479   -0.3822    1.5516 C      0
   -2.3858   -0.2319    3.0152 C      0
   -2.0859   -1.4955    0.6947 C      0
   -2.9599   -2.6072    1.2587 C      0
   -0.5096   -0.7280   -2.8072 H      0
    0.3595   -1.5496   -4.9610 H      0
    0.9185    0.0421   -6.7567 H      0
    0.7027    2.4654   -6.3623 H      0
   -0.1254    3.3004   -4.1955 H      0
   -2.1862    3.6437   -3.9624 H      0
   -3.2372    5.8719   -4.0258 H      0
   -3.6205    7.1248   -1.9413 H      0
   -2.7292    6.2533    0.1817 H      0
   -1.4115    4.2147    0.2047 H      0
    3.2792    2.9598   -2.8167 H      0
    3.7504    3.4346   -1.1899 H      0
    2.8135    4.5300   -2.2394 H      0
    1.9502   -0.3815   -2.3125 H      0
    3.5285    0.3780   -2.5228 H      0
    2.1176    1.0452   -3.3444 H      0
    3.2951   -1.0133   -0.5557 H      0
    1.7567   -1.2438    0.2644 H      0
    3.2042   -0.8882    1.1930 H      0
    0.9985    0.3900    2.8801 H      0
    2.0913    1.5903    3.5676 H      0
    2.7427    0.1339    2.8291 H      0
    0.4831    2.9488    3.2252 H      0
    0.0037    4.3385    2.2450 H      0
    1.5794    4.3050    3.0205 H      0
    2.2424    5.5549   -0.6732 H      0
    3.2007    4.4929    0.3768 H      0
    1.8813    5.4694    1.0184 H      0
   -3.0656   -2.6325   -2.4706 H      0
   -4.0860   -2.4491   -1.0522 H      0
   -2.7080   -3.5602   -1.0515 H      0
   -4.2130   -0.3527   -3.2953 H      0
   -2.5912   -0.9720   -3.5389 H      0
   -2.8791    0.7724   -3.3772 H      0
   -5.4055    1.7907   -1.5577 H      0
   -3.8628    2.1321   -2.3365 H      0
   -4.2245    2.8406   -0.7747 H      0
   -5.1885    1.9482    1.6540 H      0
   -3.7717    2.8428    1.1188 H      0
   -3.7172    1.9440    2.6250 H      0
   -2.2818   -1.2021    3.4953 H      0
   -3.1680    0.3121    3.5391 H      0
   -1.4459    0.3011    3.1437 H      0
   -2.6429   -3.5883    0.9175 H      0
   -4.0052   -2.4752    0.9898 H      0
   -2.9171   -2.6455    2.3433 H      0
  1  2  1
  2  3  1
  3  4  1
  1  4  1
  2  4  1
  4  5  1
  2  5  1
  5  6  1
  6  7  4
  7  8  4
  8  9  4
  9 10  4
 10 11  4
  6 11  4
  5 12  1
 12 13  4
 13 14  4
 14 15  4
 15 16  4
 16 17  4
 12 17  4
  4 18  1
 18 19  1
 18 20  4
  4 20  1
 20 21  1
 20 22  4
  4 22  1
 22 23  1
 22 24  4
  4 24  1
 24 25  1
 24 26  4
  4 26  1
 26 27  1
 26 28  4
  4 28  1
 18 28  4
 28 29  1
  2 30  1
 30 31  1
 30 32  4
  2 32  1
 32 33  1
 32 34  4
  2 34  1
 34 35  1
 34 36  4
  2 36  1
 36 37  1
 36 38  4
  2 38  1
 38 39  1
 38 40  4
  2 40  1
 30 40  4
 40 41  1
  7 42  1
  8 43  1
  9 44  1
 10 45  1
 11 46  1
 13 47  1
 14 48  1
 15 49  1
 16 50  1
 17 51  1
 19 52  1
 19 53  1
 19 54  1
 21 55  1
 21 56  1
 21 57  1
 23 58  1
 23 59  1
 23 60  1
 25 61  1
 25 62  1
 25 63  1
 27 64  1
 27 65  1
 27 66  1
 29 67  1
 29 68  1
 29 69  1
 31 70  1
 31 71  1
 31 72  1
 33 73  1
 33 74  1
 33 75  1
 35 76  1
 35 77  1
 35 78  1
 37 79  1
 37 80  1
 37 81  1
 39 82  1
 39 83  1
 39 84  1
 41 85  1
 41 86  1
 41 87  1
M  CHG  1   5   1
M  END
$$$$
