
 OpenBabel09252515563D

114121  0  0  0  0  0  0  0  0999 V2000
    0.9014   -0.0168    0.0004 C   0  0  0  0  0  0  0  0  0  0  0  0
    0.4281   -0.8300   -1.0631 O   0  0  0  0  0  0  0  0  0  0  0  0
    0.2473   -2.0864   -0.6205 C   0  0  0  0  0  0  0  0  0  0  0  0
    0.6771   -3.0391   -1.6400 C   0  0  0  0  0  0  0  0  0  0  0  0
    1.8063   -2.3070   -2.4036 O   0  0  0  0  0  0  0  0  0  0  0  0
    1.7964   -2.6393   -3.7841 C   0  0  0  0  0  0  0  0  0  0  0  0
    1.4339   -0.8332   -2.1805 Eu  0  0  0  0  0  0  0  0  0  0  0  0
    0.9510   -0.2331    0.3968 N   0  0  0  0  0  0  0  0  0  0  0  0
   -0.0278    0.5889    0.7086 C   0  0  0  0  0  0  0  0  0  0  0  0
   -1.2330    1.6010    1.0925 S   0  0  0  0  0  0  0  0  0  0  0  0
    2.0520   -1.1277    0.4209 N   0  0  0  0  0  0  0  0  0  0  0  0
    0.9886   -1.1094    1.4357 C   0  0  0  0  0  0  0  0  0  0  0  0
    0.0276   -2.0067    1.3864 C   0  0  0  0  0  0  0  0  0  0  0  0
   -0.9598   -1.9715    2.3650 C   0  0  0  0  0  0  0  0  0  0  0  0
   -0.6174   -1.3471    3.5852 C   0  0  0  0  0  0  0  0  0  0  0  0
    0.2315   -0.2451    3.4982 C   0  0  0  0  0  0  0  0  0  0  0  0
    1.0105   -0.1382    2.4426 C   0  0  0  0  0  0  0  0  0  0  0  0
    1.9446    1.0542    2.3161 C   0  0  0  0  0  0  0  0  0  0  0  0
    1.1300    2.3375    2.3095 C   0  0  0  0  0  0  0  0  0  0  0  0
    2.9070    1.0711    3.4925 C   0  0  0  0  0  0  0  0  0  0  0  0
   -0.0027   -3.0559    0.2870 C   0  0  0  0  0  0  0  0  0  0  0  0
    0.0617   -4.4420    0.9075 C   0  0  0  0  0  0  0  0  0  0  0  0
   -1.2893   -2.9171   -0.5105 C   0  0  0  0  0  0  0  0  0  0  0  0
    3.4532   -1.3068    0.8277 C   0  0  0  0  0  0  0  0  0  0  0  0
    3.9574   -2.3533    1.4738 C   0  0  0  0  0  0  0  0  0  0  0  0
    0.4678    1.1567   -0.6498 N   0  0  0  0  0  0  0  0  0  0  0  0
    0.0051    2.4050   -1.2730 C   0  0  0  0  0  0  0  0  0  0  0  0
   -0.9680    2.4747   -2.1558 C   0  0  0  0  0  0  0  0  0  0  0  0
   -1.2700    3.7140   -2.7096 C   0  0  0  0  0  0  0  0  0  0  0  0
   -0.8952    4.8498   -1.9577 C   0  0  0  0  0  0  0  0  0  0  0  0
    0.2928    4.7482   -1.2359 C   0  0  0  0  0  0  0  0  0  0  0  0
    0.7243    3.5486   -0.9084 C   0  0  0  0  0  0  0  0  0  0  0  0
    2.0188    3.4039   -0.1249 C   0  0  0  0  0  0  0  0  0  0  0  0
    3.1637    4.0068   -0.9224 C   0  0  0  0  0  0  0  0  0  0  0  0
    1.8902    4.1295    1.2046 C   0  0  0  0  0  0  0  0  0  0  0  0
   -1.7431    1.2312   -2.5602 C   0  0  0  0  0  0  0  0  0  0  0  0
   -3.2141    1.4206   -2.2277 C   0  0  0  0  0  0  0  0  0  0  0  0
   -1.5870    1.0007   -4.0545 C   0  0  0  0  0  0  0  0  0  0  0  0
    5.3947   -2.1616    1.7021 C   0  0  0  0  0  0  0  0  0  0  0  0
    6.4879   -2.9220    2.3368 C   0  0  0  0  0  0  0  0  0  0  0  0
    7.7061   -2.4089    2.3533 C   0  0  0  0  0  0  0  0  0  0  0  0
    8.0172   -1.0919    1.7553 C   0  0  0  0  0  0  0  0  0  0  0  0
    7.0450   -0.4162    1.1911 C   0  0  0  0  0  0  0  0  0  0  0  0
    7.1633    0.9036    0.5478 C   0  0  0  0  0  0  0  0  0  0  0  0
    6.0773    1.4451    0.0270 C   0  0  0  0  0  0  0  0  0  0  0  0
    4.7473    0.8144    0.0460 C   0  0  0  0  0  0  0  0  0  0  0  0
    4.5547   -0.3606    0.5909 C   0  0  0  0  0  0  0  0  0  0  0  0
    5.7160   -1.0158    1.1933 C   0  0  0  0  0  0  0  0  0  0  0  0
    2.6447   -0.0069   -1.8472 O   0  0  0  0  0  0  0  0  0  0  0  0
    3.7892   -0.8455   -1.7893 C   0  0  0  0  0  0  0  0  0  0  0  0
    2.8220    0.9288   -2.7957 C   0  0  0  0  0  0  0  0  0  0  0  0
    1.5726    1.1467   -3.5183 C   0  0  0  0  0  0  0  0  0  0  0  0
    0.8470   -0.2190   -3.4643 O   0  0  0  0  0  0  0  0  0  0  0  0
   -0.5598   -0.0542   -3.3632 C   0  0  0  0  0  0  0  0  0  0  0  0
    0.5448   -0.4044    0.9317 H   0  0  0  0  0  0  0  0  0  0  0  0
    0.5448    0.9836   -0.1296 H   0  0  0  0  0  0  0  0  0  0  0  0
    1.9714   -0.0168    0.0004 H   0  0  0  0  0  0  0  0  0  0  0  0
   -0.7905   -2.2398   -0.4100 H   0  0  0  0  0  0  0  0  0  0  0  0
    0.8227   -2.2353    0.2693 H   0  0  0  0  0  0  0  0  0  0  0  0
    1.0060   -3.9657   -1.2180 H   0  0  0  0  0  0  0  0  0  0  0  0
   -0.1314   -3.2783   -2.2988 H   0  0  0  0  0  0  0  0  0  0  0  0
    0.8183   -2.4714   -4.1843 H   0  0  0  0  0  0  0  0  0  0  0  0
    2.5041   -2.0274   -4.3034 H   0  0  0  0  0  0  0  0  0  0  0  0
    2.0592   -3.6695   -3.9049 H   0  0  0  0  0  0  0  0  0  0  0  0
   -1.9288   -2.3953    2.2023 H   0  0  0  0  0  0  0  0  0  0  0  0
   -0.9891   -1.7007    4.5242 H   0  0  0  0  0  0  0  0  0  0  0  0
    0.2494    0.4955    4.2702 H   0  0  0  0  0  0  0  0  0  0  0  0
    2.4981    0.9784    1.4036 H   0  0  0  0  0  0  0  0  0  0  0  0
    0.5765    2.4133    3.2221 H   0  0  0  0  0  0  0  0  0  0  0  0
    1.7876    3.1769    2.2204 H   0  0  0  0  0  0  0  0  0  0  0  0
    0.4526    2.3257    1.4814 H   0  0  0  0  0  0  0  0  0  0  0  0
    3.4804    0.1677    3.4972 H   0  0  0  0  0  0  0  0  0  0  0  0
    3.5645    1.9104    3.4035 H   0  0  0  0  0  0  0  0  0  0  0  0
    2.3534    1.1469    4.4051 H   0  0  0  0  0  0  0  0  0  0  0  0
    0.8362   -2.9164   -0.3623 H   0  0  0  0  0  0  0  0  0  0  0  0
   -0.7772   -4.5815    1.5568 H   0  0  0  0  0  0  0  0  0  0  0  0
    0.0404   -5.1806    0.1335 H   0  0  0  0  0  0  0  0  0  0  0  0
    0.9674   -4.5397    1.4689 H   0  0  0  0  0  0  0  0  0  0  0  0
   -1.3346   -1.9414   -0.9473 H   0  0  0  0  0  0  0  0  0  0  0  0
   -1.3106   -3.6557   -1.2844 H   0  0  0  0  0  0  0  0  0  0  0  0
   -2.1282   -3.0566    0.1388 H   0  0  0  0  0  0  0  0  0  0  0  0
   -1.7608    3.8028   -3.6563 H   0  0  0  0  0  0  0  0  0  0  0  0
   -1.4904    5.7389   -1.9431 H   0  0  0  0  0  0  0  0  0  0  0  0
    0.8403    5.6235   -0.9551 H   0  0  0  0  0  0  0  0  0  0  0  0
    2.2145    2.3670    0.0521 H   0  0  0  0  0  0  0  0  0  0  0  0
    2.9680    5.0437   -1.0994 H   0  0  0  0  0  0  0  0  0  0  0  0
    4.0750    3.9049   -0.3709 H   0  0  0  0  0  0  0  0  0  0  0  0
    3.2543    3.4960   -1.8583 H   0  0  0  0  0  0  0  0  0  0  0  0
    1.0842    3.7051    1.7660 H   0  0  0  0  0  0  0  0  0  0  0  0
    2.8014    4.0276    1.7561 H   0  0  0  0  0  0  0  0  0  0  0  0
    1.6944    5.1664    1.0275 H   0  0  0  0  0  0  0  0  0  0  0  0
   -1.3630    0.3849   -2.0271 H   0  0  0  0  0  0  0  0  0  0  0  0
   -3.5942    2.2669   -2.7608 H   0  0  0  0  0  0  0  0  0  0  0  0
   -3.7597    0.5453   -2.5124 H   0  0  0  0  0  0  0  0  0  0  0  0
   -3.3240    1.5829   -1.1758 H   0  0  0  0  0  0  0  0  0  0  0  0
   -0.5515    0.8674   -4.2886 H   0  0  0  0  0  0  0  0  0  0  0  0
   -2.1326    0.1253   -4.3392 H   0  0  0  0  0  0  0  0  0  0  0  0
   -1.9671    1.8470   -4.5876 H   0  0  0  0  0  0  0  0  0  0  0  0
    6.2971   -3.8776    2.7787 H   0  0  0  0  0  0  0  0  0  0  0  0
    8.4946   -2.9655    2.8153 H   0  0  0  0  0  0  0  0  0  0  0  0
    9.0123   -0.6997    1.7824 H   0  0  0  0  0  0  0  0  0  0  0  0
    8.1046    1.4103    0.5037 H   0  0  0  0  0  0  0  0  0  0  0  0
    6.1701    2.4040   -0.4387 H   0  0  0  0  0  0  0  0  0  0  0  0
    3.9189    1.3279   -0.3956 H   0  0  0  0  0  0  0  0  0  0  0  0
    3.9311   -1.3211   -2.7373 H   0  0  0  0  0  0  0  0  0  0  0  0
    4.6510   -0.2570   -1.5530 H   0  0  0  0  0  0  0  0  0  0  0  0
    3.6479   -1.5903   -1.0342 H   0  0  0  0  0  0  0  0  0  0  0  0
    3.5726    0.5969   -3.4821 H   0  0  0  0  0  0  0  0  0  0  0  0
    3.1309    1.8449   -2.3370 H   0  0  0  0  0  0  0  0  0  0  0  0
    1.7370    1.4793   -4.5219 H   0  0  0  0  0  0  0  0  0  0  0  0
    0.9872    1.9045   -3.0407 H   0  0  0  0  0  0  0  0  0  0  0  0
   -0.7920    0.4893   -2.4712 H   0  0  0  0  0  0  0  0  0  0  0  0
   -0.9176    0.4872   -4.2140 H   0  0  0  0  0  0  0  0  0  0  0  0
   -1.0298   -1.0148   -3.3282 H   0  0  0  0  0  0  0  0  0  0  0  0
  1  2  1  0  0  0  0
  1 55  1  0  0  0  0
  1 56  1  0  0  0  0
  1 57  1  0  0  0  0
  2  3  1  0  0  0  0
  2  7  1  0  0  0  0
  3  4  1  0  0  0  0
  3 58  1  0  0  0  0
  3 59  1  0  0  0  0
  4  5  1  0  0  0  0
  4 60  1  0  0  0  0
  4 61  1  0  0  0  0
  5  6  1  0  0  0  0
  5  7  1  0  0  0  0
  6 62  1  0  0  0  0
  6 63  1  0  0  0  0
  6 64  1  0  0  0  0
  7  8  1  0  0  0  0
  7 11  1  0  0  0  0
  7 26  1  0  0  0  0
  7 49  1  0  0  0  0
  7 53  1  0  0  0  0
  8  9  2  0  0  0  0
  9 10  2  0  0  0  0
 11 12  1  0  0  0  0
 11 24  1  0  0  0  0
 12 13  1  0  0  0  0
 12 17  2  0  0  0  0
 13 14  2  0  0  0  0
 13 21  1  0  0  0  0
 14 15  1  0  0  0  0
 14 65  1  0  0  0  0
 15 16  2  0  0  0  0
 15 66  1  0  0  0  0
 16 17  1  0  0  0  0
 16 67  1  0  0  0  0
 17 18  1  0  0  0  0
 18 19  1  0  0  0  0
 18 20  1  0  0  0  0
 18 68  1  0  0  0  0
 19 69  1  0  0  0  0
 19 70  1  0  0  0  0
 19 71  1  0  0  0  0
 20 72  1  0  0  0  0
 20 73  1  0  0  0  0
 20 74  1  0  0  0  0
 21 22  1  0  0  0  0
 21 23  1  0  0  0  0
 21 75  1  0  0  0  0
 22 76  1  0  0  0  0
 22 77  1  0  0  0  0
 22 78  1  0  0  0  0
 23 79  1  0  0  0  0
 23 80  1  0  0  0  0
 23 81  1  0  0  0  0
 24 25  2  0  0  0  0
 24 47  1  0  0  0  0
 25 26  1  0  0  0  0
 25 39  1  0  0  0  0
 26 27  1  0  0  0  0
 27 28  1  0  0  0  0
 27 32  2  0  0  0  0
 28 29  2  0  0  0  0
 28 36  1  0  0  0  0
 29 30  1  0  0  0  0
 29 82  1  0  0  0  0
 30 31  2  0  0  0  0
 30 83  1  0  0  0  0
 31 32  1  0  0  0  0
 31 84  1  0  0  0  0
 32 33  1  0  0  0  0
 33 34  1  0  0  0  0
 33 35  1  0  0  0  0
 33 85  1  0  0  0  0
 34 86  1  0  0  0  0
 34 87  1  0  0  0  0
 34 88  1  0  0  0  0
 35 89  1  0  0  0  0
 35 90  1  0  0  0  0
 35 91  1  0  0  0  0
 36 37  1  0  0  0  0
 36 38  1  0  0  0  0
 36 92  1  0  0  0  0
 37 93  1  0  0  0  0
 37 94  1  0  0  0  0
 37 95  1  0  0  0  0
 38 96  1  0  0  0  0
 38 97  1  0  0  0  0
 38 98  1  0  0  0  0
 39 40  1  0  0  0  0
 39 48  2  0  0  0  0
 40 41  2  0  0  0  0
 40 99  1  0  0  0  0
 41 42  1  0  0  0  0
 41100  1  0  0  0  0
 42 43  2  0  0  0  0
 42101  1  0  0  0  0
 43 44  1  0  0  0  0
 43 48  1  0  0  0  0
 44 45  2  0  0  0  0
 44102  1  0  0  0  0
 45 46  1  0  0  0  0
 45103  1  0  0  0  0
 46 47  2  0  0  0  0
 46104  1  0  0  0  0
 47 48  1  0  0  0  0
 49 50  1  0  0  0  0
 49 51  1  0  0  0  0
 50105  1  0  0  0  0
 50106  1  0  0  0  0
 50107  1  0  0  0  0
 51 52  1  0  0  0  0
 51108  1  0  0  0  0
 51109  1  0  0  0  0
 52 53  1  0  0  0  0
 52110  1  0  0  0  0
 52111  1  0  0  0  0
 53 54  1  0  0  0  0
 54112  1  0  0  0  0
 54113  1  0  0  0  0
 54114  1  0  0  0  0
M  END
$$$$
