
     RDKit          3D

  0  0  0  0  0  0  0  0  0  0999 V3000
M  V30 BEGIN CTAB
M  V30 COUNTS 114 121 0 0 0
M  V30 BEGIN ATOM
M  V30 1 C -2.596114 -2.921399 0.397936 0
M  V30 2 O -1.344026 -2.984443 -0.088352 0
M  V30 3 C -0.859168 -4.245455 0.270516 0
M  V30 4 C -0.658274 -3.727459 1.719580 0
M  V30 5 O 0.101720 -2.590017 1.166904 0
M  V30 6 C 1.241555 -2.747841 1.851085 0
M  V30 7 Eu -0.028829 -1.592678 -0.581117 0 VAL=7
M  V30 8 N 1.598289 -2.749152 -0.661537 0
M  V30 9 C 2.276273 -3.661340 -0.411826 0
M  V30 10 S 3.577187 -4.418779 0.028932 0
M  V30 11 N 1.209289 0.004853 -0.166197 0
M  V30 12 C 2.566577 0.166259 0.426291 0
M  V30 13 C 2.745257 0.422154 1.771298 0
M  V30 14 C 3.848197 0.392893 2.563228 0
M  V30 15 C 5.060394 0.053284 1.941497 0
M  V30 16 C 4.966761 -0.196678 0.589711 0
M  V30 17 C 3.818581 -0.153106 -0.201277 0
M  V30 18 C 4.194806 -0.314738 -1.580590 0
M  V30 19 C 5.681763 0.243090 -1.697279 0
M  V30 20 C 4.457414 -1.739438 -1.984828 0
M  V30 21 C 1.773273 1.278486 2.543734 0
M  V30 22 C 1.983742 1.210314 4.010511 0
M  V30 23 C 2.368519 2.724078 2.196347 0
M  V30 24 C 0.670969 1.245796 -0.607144 0
M  V30 25 C -0.632480 1.263502 -0.437063 0
M  V30 26 N -1.180190 0.022911 0.129788 0
M  V30 27 C -2.357988 0.208491 0.896928 0
M  V30 28 C -3.640022 0.251910 0.166037 0
M  V30 29 C -4.846947 0.442974 0.777379 0
M  V30 30 C -5.010077 0.625523 2.124700 0
M  V30 31 C -3.842374 0.606290 2.838838 0
M  V30 32 C -2.685707 0.416947 2.219354 0
M  V30 33 C -1.638342 0.460874 3.260431 0
M  V30 34 C -1.629435 1.821050 3.972415 0
M  V30 35 C -0.661628 -0.551075 3.507146 0
M  V30 36 C -4.132303 0.162631 -1.226230 0
M  V30 37 C -5.397833 1.078551 -1.468281 0
M  V30 38 C -4.774847 -1.187949 -1.414003 0
M  V30 39 C -1.105636 2.600197 -0.933245 0
M  V30 40 C -2.280778 3.261442 -1.035169 0
M  V30 41 C -2.415772 4.535735 -1.558351 0
M  V30 42 C -1.287404 5.221708 -2.025145 0
M  V30 43 C -0.069530 4.595725 -1.940123 0
M  V30 44 C 1.151693 5.067899 -2.344946 0
M  V30 45 C 2.329320 4.329623 -2.213888 0
M  V30 46 C 2.258087 3.053540 -1.637548 0
M  V30 47 C 1.047180 2.559286 -1.223104 0
M  V30 48 C -0.041043 3.347314 -1.407977 0
M  V30 49 O -1.281201 -1.810040 -2.144299 0
M  V30 50 C -1.692916 -0.964231 -2.995237 0
M  V30 51 C -0.955868 -3.069675 -2.946410 0
M  V30 52 C 0.150870 -2.362365 -3.593030 0
M  V30 53 O 0.653173 -1.663706 -2.443853 0
M  V30 54 C 1.360404 -0.664710 -3.054014 0
M  V30 55 H -2.969749 -1.935012 0.238952 0
M  V30 56 H -3.205046 -3.533235 -0.405538 0
M  V30 57 H -2.863109 -3.321548 1.368710 0
M  V30 58 H 0.089020 -4.543769 -0.133485 0
M  V30 59 H -1.685422 -4.887412 0.301557 0
M  V30 60 H 0.037433 -4.350636 2.247817 0
M  V30 61 H -1.463800 -3.296071 2.221054 0
M  V30 62 H 1.050915 -2.599249 2.935478 0
M  V30 63 H 2.073646 -2.173187 1.518735 0
M  V30 64 H 1.554693 -3.868588 1.834913 0
M  V30 65 H 4.000666 0.560118 3.611330 0
M  V30 66 H 5.983292 -0.020816 2.485707 0
M  V30 67 H 5.959984 -0.478715 0.255706 0
M  V30 68 H 3.674511 0.206618 -2.359752 0
M  V30 69 H 5.816179 1.013827 -0.935981 0
M  V30 70 H 5.765724 0.700332 -2.697207 0
M  V30 71 H 6.361967 -0.577772 -1.559235 0
M  V30 72 H 4.951798 -2.221916 -1.121678 0
M  V30 73 H 5.205496 -1.736308 -2.863253 0
M  V30 74 H 3.566052 -2.244009 -2.280012 0
M  V30 75 H 0.801524 1.392872 2.124665 0
M  V30 76 H 1.134366 1.650682 4.575374 0
M  V30 77 H 2.235066 0.205648 4.432173 0
M  V30 78 H 2.851659 1.883516 4.286652 0
M  V30 79 H 3.332829 2.831105 2.693476 0
M  V30 80 H 1.618870 3.477423 2.405251 0
M  V30 81 H 2.564144 2.692267 1.114821 0
M  V30 82 H -5.896063 0.453488 0.416747 0
M  V30 83 H -5.928867 0.768471 2.663668 0
M  V30 84 H -4.031859 0.777130 3.913071 0
M  V30 85 H -2.319899 -0.023996 4.216577 0
M  V30 86 H -2.637123 2.276941 3.733068 0
M  V30 87 H -0.820356 2.488834 3.607492 0
M  V30 88 H -1.527932 1.815895 5.042563 0
M  V30 89 H -0.191956 -0.495910 4.538904 0
M  V30 90 H -1.141563 -1.560978 3.541750 0
M  V30 91 H 0.157703 -0.625870 2.815554 0
M  V30 92 H -3.449943 0.414872 -1.972879 0
M  V30 93 H -5.247021 1.498094 -2.485318 0
M  V30 94 H -6.270727 0.468052 -1.502329 0
M  V30 95 H -5.452474 1.866182 -0.719433 0
M  V30 96 H -5.755615 -1.125301 -1.961654 0
M  V30 97 H -5.086810 -1.607654 -0.398366 0
M  V30 98 H -4.156413 -1.946382 -1.898111 0
M  V30 99 H -3.081408 2.664470 -0.648209 0
M  V30 100 H -3.385746 4.999964 -1.608719 0
M  V30 101 H -1.292791 6.195751 -2.439665 0
M  V30 102 H 1.166737 6.054668 -2.781457 0
M  V30 103 H 3.290801 4.679884 -2.529410 0
M  V30 104 H 3.110968 2.367318 -1.479606 0
M  V30 105 H -1.158630 -0.712135 -3.960493 0
M  V30 106 H -1.659585 0.131266 -2.566979 0
M  V30 107 H -2.711117 -1.126196 -3.331448 0
M  V30 108 H -1.832179 -3.163538 -3.519758 0
M  V30 109 H -0.652994 -3.761886 -2.186998 0
M  V30 110 H 0.996334 -3.095090 -3.887481 0
M  V30 111 H -0.072371 -1.720514 -4.361720 0
M  V30 112 H 2.184652 -1.095191 -3.632874 0
M  V30 113 H 1.665235 0.131018 -2.409254 0
M  V30 114 H 0.701740 -0.176876 -3.851986 0
M  V30 END ATOM
M  V30 BEGIN BOND
M  V30 1 1 1 2
M  V30 2 1 2 3
M  V30 3 1 3 4
M  V30 4 1 4 5
M  V30 5 1 5 6
M  V30 6 9 5 7
M  V30 7 1 7 8
M  V30 8 2 8 9
M  V30 9 2 9 10
M  V30 10 1 7 11
M  V30 11 1 11 12
M  V30 12 2 12 13
M  V30 13 1 13 14
M  V30 14 2 14 15
M  V30 15 1 15 16
M  V30 16 2 16 17
M  V30 17 1 17 18
M  V30 18 1 18 19
M  V30 19 1 18 20
M  V30 20 1 13 21
M  V30 21 1 21 22
M  V30 22 1 21 23
M  V30 23 1 11 24
M  V30 24 2 24 25
M  V30 25 1 25 26
M  V30 26 1 26 27
M  V30 27 2 27 28
M  V30 28 1 28 29
M  V30 29 2 29 30
M  V30 30 1 30 31
M  V30 31 2 31 32
M  V30 32 1 32 33
M  V30 33 1 33 34
M  V30 34 1 33 35
M  V30 35 1 28 36
M  V30 36 1 36 37
M  V30 37 1 36 38
M  V30 38 1 25 39
M  V30 39 2 39 40
M  V30 40 1 40 41
M  V30 41 2 41 42
M  V30 42 1 42 43
M  V30 43 2 43 44
M  V30 44 1 44 45
M  V30 45 2 45 46
M  V30 46 1 46 47
M  V30 47 2 47 48
M  V30 48 9 49 7
M  V30 49 1 49 50
M  V30 50 1 49 51
M  V30 51 1 51 52
M  V30 52 1 52 53
M  V30 53 1 53 54
M  V30 54 9 2 7
M  V30 55 1 17 12
M  V30 56 1 47 24
M  V30 57 1 26 7
M  V30 58 1 32 27
M  V30 59 1 48 39
M  V30 60 9 53 7
M  V30 61 1 48 43
M  V30 62 1 1 55
M  V30 63 1 1 56
M  V30 64 1 1 57
M  V30 65 1 3 58
M  V30 66 1 3 59
M  V30 67 1 4 60
M  V30 68 1 4 61
M  V30 69 1 6 62
M  V30 70 1 6 63
M  V30 71 1 6 64
M  V30 72 1 14 65
M  V30 73 1 15 66
M  V30 74 1 16 67
M  V30 75 1 18 68
M  V30 76 1 19 69
M  V30 77 1 19 70
M  V30 78 1 19 71
M  V30 79 1 20 72
M  V30 80 1 20 73
M  V30 81 1 20 74
M  V30 82 1 21 75
M  V30 83 1 22 76
M  V30 84 1 22 77
M  V30 85 1 22 78
M  V30 86 1 23 79
M  V30 87 1 23 80
M  V30 88 1 23 81
M  V30 89 1 29 82
M  V30 90 1 30 83
M  V30 91 1 31 84
M  V30 92 1 33 85
M  V30 93 1 34 86
M  V30 94 1 34 87
M  V30 95 1 34 88
M  V30 96 1 35 89
M  V30 97 1 35 90
M  V30 98 1 35 91
M  V30 99 1 36 92
M  V30 100 1 37 93
M  V30 101 1 37 94
M  V30 102 1 37 95
M  V30 103 1 38 96
M  V30 104 1 38 97
M  V30 105 1 38 98
M  V30 106 1 40 99
M  V30 107 1 41 100
M  V30 108 1 42 101
M  V30 109 1 44 102
M  V30 110 1 45 103
M  V30 111 1 46 104
M  V30 112 1 50 105
M  V30 113 1 50 106
M  V30 114 1 50 107
M  V30 115 1 51 108
M  V30 116 1 51 109
M  V30 117 1 52 110
M  V30 118 1 52 111
M  V30 119 1 54 112
M  V30 120 1 54 113
M  V30 121 1 54 114
M  V30 END BOND
M  V30 END CTAB
M  END
