
  --CCDC--092525    3D                              

 45 50  0  0  0  0  0  0  0  0999 V2000
    6.3104    0.9996   -0.4939 H      0
    6.5970    2.0449   -0.5891 C      0
    7.1320    2.3378    0.3135 H      0
    7.2862    2.1342   -1.4292 H      0
    5.0764    3.1042   -0.8445 Si     0
    3.6582    2.5860    0.1546 C      0
    2.4402    3.2774    0.1076 C      0
    0.6050    4.2452    0.1281 Cr     0
    2.2612    5.4093    0.5556 C      0
    3.1628    6.0644    0.7932 O      0
    1.8371    4.7698   -1.4476 C      0
    2.5161    5.0589   -2.3158 O      0
   -0.1779    4.1904    1.8419 C      0
    0.9677    4.3821    1.8679 H      0
   -0.1812    2.7979    1.1659 C      0
    0.7453    2.0862    0.9639 H      0
   -0.5242    2.7466   -0.2987 C      0
    0.1668    2.4231   -1.2147 H      0
   -0.9339    4.0082   -1.0129 C      0
   -0.3789    4.5317   -1.9283 H      0
   -1.0223    5.3341   -0.2886 C      0
   -0.3776    6.3258   -0.4769 H      0
   -0.6211    5.3816    1.0689 C      0
    0.4213    5.8408    0.8256 H      0
    3.8378    1.1045    1.1853 Si     0
    5.1900    1.1979    2.4719 C      0
    5.2315    2.1926    2.9112 H      0
    6.1580    0.9730    2.0289 H      0
    5.0068    0.4824    3.2698 H      0
    4.2717   -0.4390    0.2224 C      0
    5.0736   -0.9785    0.7226 H      0
    4.6121   -0.1838   -0.7800 H      0
    3.4207   -1.1114    0.1396 H      0
    2.2828    0.7086    2.1458 C      0
    1.8650    1.6139    2.5848 H      0
    2.4987    0.0100    2.9521 H      0
    1.5294    0.2611    1.4984 H      0
    5.6410    4.8436   -0.4549 C      0
    6.5998    5.0589   -0.9246 H      0
    5.7529    4.9835    0.6184 H      0
    4.9195    5.5729   -0.8184 H      0
    4.7368    3.1078   -2.6828 C      0
    5.3446    2.3622   -3.1922 H      0
    4.9582    4.0809   -3.1202 H      0
    3.6906    2.8787   -2.8818 H      0
  1  2  1
  2  3  1
  2  4  1
  2  5  1
  5  6  1
  6  7  4
  7  8  4
  8  9  1
  9 10  3
  8 11  1
 11 12  3
  8 13  1
 13 14  1
 13 15  4
  8 15  1
 15 16  1
 15 17  4
  8 17  1
 17 18  1
 17 19  4
  8 19  1
 19 20  1
 19 21  4
  8 21  1
 21 22  1
 21 23  4
 13 23  4
  8 23  1
 23 24  1
  6 25  1
 25 26  1
 26 27  1
 26 28  1
 26 29  1
 25 30  1
 30 31  1
 30 32  1
 30 33  1
 25 34  1
 34 35  1
 34 36  1
 34 37  1
  5 38  1
 38 39  1
 38 40  1
 38 41  1
  5 42  1
 42 43  1
 42 44  1
 42 45  1
M  END
$$$$
