
 OpenBabel09252516303D

 24 29  0  0  1  0  0  0  0  0999 V2000
    0.9367   -0.0391   -0.0669 H   0  0  0  0  0  0  0  0  0  0  0  0
    2.0067   -0.0391   -0.0669 C   0  0  0  0  0  0  0  0  0  0  0  0
    2.3634    0.1807   -1.0514 H   0  0  0  0  0  0  0  0  0  0  0  0
    2.3634    0.7037    0.6158 H   0  0  0  0  0  0  0  0  0  0  0  0
    2.5134   -1.4065    0.3621 C   0  0  2  0  0  0  0  0  0  0  0  0
    3.8706   -1.8128    0.8092 C   0  0  2  0  0  0  0  0  0  0  0  0
    4.3716   -0.9167    1.1105 H   0  0  0  0  0  0  0  0  0  0  0  0
    4.0522   -3.2410    0.2533 C   0  0  2  0  0  0  0  0  0  0  0  0
    4.9725   -3.1121   -0.2770 H   0  0  0  0  0  0  0  0  0  0  0  0
    2.6208   -3.7824    0.0641 C   0  0  2  0  0  0  0  0  0  0  0  0
    1.9919   -4.2394   -0.6710 H   0  0  0  0  0  0  0  0  0  0  0  0
    1.6947   -2.6358    0.5216 C   0  0  1  0  0  0  0  0  0  0  0  0
    0.6795   -2.3131    0.6224 H   0  0  0  0  0  0  0  0  0  0  0  0
    3.5532   -4.4136    1.0997 Mn  0  0  0  0  0  0  0  0  0  0  0  0
    1.8724   -3.0809    0.9541 C   0  0  0  0  0  0  0  0  0  0  0  0
    0.9201   -2.3259    0.8716 O   0  0  0  0  0  0  0  0  0  0  0  0
    2.2404   -3.1402   -0.0305 C   0  0  0  0  0  0  0  0  0  0  0  0
    1.4966   -2.4187   -0.6709 O   0  0  0  0  0  0  0  0  0  0  0  0
    4.0268   -5.6691    2.1435 H   0  0  0  0  0  0  0  0  0  0  0  0
    5.4602   -5.9653    1.5533 Si  0  0  0  0  0  0  0  0  0  0  0  0
    4.6007   -4.5817    0.1807 Cl  0  0  0  0  0  0  0  0  0  0  0  0
    6.8558   -5.0145    2.8514 Cl  0  0  0  0  0  0  0  0  0  0  0  0
    4.7276   -7.7399    2.4756 Cl  0  0  0  0  0  0  0  0  0  0  0  0
    6.1014   -6.2974    0.3305 H   0  0  0  0  0  0  0  0  0  0  0  0
  1  2  1  0  0  0  0
  2  3  1  0  0  0  0
  2  4  1  0  0  0  0
  5  2  1  1  0  0  0
  5  6  1  0  0  0  0
  5 12  1  0  0  0  0
  5 14  1  0  0  0  0
  6  7  1  1  0  0  0
  6  8  1  0  0  0  0
  6 14  1  0  0  0  0
  8  9  1  6  0  0  0
  8 10  1  0  0  0  0
  8 14  1  0  0  0  0
 10 11  1  6  0  0  0
 10 12  1  0  0  0  0
 10 14  1  0  0  0  0
 12 13  1  1  0  0  0
 12 14  1  0  0  0  0
 14 15  1  0  0  0  0
 14 17  1  0  0  0  0
 14 19  1  0  0  0  0
 14 20  1  0  0  0  0
 15 16  3  0  0  0  0
 17 18  3  0  0  0  0
 19 20  1  0  0  0  0
 20 21  1  0  0  0  0
 20 22  1  0  0  0  0
 20 23  1  0  0  0  0
 20 24  1  0  0  0  0
M  END
$$$$
