
  --CCDC--092525    3D                              

 24 29  0  0  0  0  0  0  0  0999 V2000
    2.0231   -0.3624    0.4347 H      0
    1.4156   -0.3373   -0.4653 C      0
    1.8656    0.3757   -1.1516 H      0
    1.4468   -1.3217   -0.9271 H      0
   -0.0266    0.0643   -0.1218 C      0
   -1.2227    0.4313   -0.9536 C      0
   -0.9453    0.4742   -2.0637 H      0
   -2.4634    0.1063   -0.1333 C      0
   -3.3455   -0.0310   -0.8445 H      0
   -1.9791   -0.6225    1.1696 C      0
   -2.4495   -1.6494    1.3014 H      0
   -0.4423   -0.6481    1.1193 C      0
    0.0202   -1.6844    1.1744 H      0
   -1.3124   -1.7106   -0.5246 Mn     0
   -2.6953   -3.4558    0.0138 C      0
   -3.4067   -4.3018    0.2947 O      0
   -2.5011   -2.3870   -2.3594 C      0
   -3.0932   -2.7239   -3.2733 O      0
   -0.2547   -2.8507   -1.6488 H      0
    0.0008   -4.0847   -0.7086 Si     0
   -0.5329   -4.9157    1.1060 Cl     0
   -1.2937   -5.5580   -1.3587 Cl     0
    1.7681   -3.8088    0.3264 Cl     0
    0.9319   -4.8559   -1.6072 H      0
  1  2  1
  2  3  1
  2  4  1
  2  5  1
  5  6  4
  6  7  1
  6  8  4
  8  9  1
  8 10  4
 10 11  1
 10 12  4
  5 12  4
 12 13  1
 12 14  1
  8 14  1
 10 14  1
  6 14  1
  5 14  1
 14 15  1
 15 16  3
 14 17  1
 17 18  3
 14 19  1
 19 20  1
 14 20  1
 20 21  1
 20 22  1
 20 23  1
 20 24  1
M  END
$$$$
