
  --CCDC--092525    3D                              

 57 64  0  0  0  0  0  0  0  0999 V2000
   -0.3932    2.2247   -3.8623 H      0
   -0.8449    1.4954   -3.1966 C      0
   -2.0009    1.6437   -2.5385 C      0
   -2.6545    2.5071   -2.6020 H      0
   -2.1426    0.5818   -1.6337 N      0
   -1.1895   -0.4494   -1.9213 C      0
   -0.2557    0.3296   -2.6995 N      0
    1.1821    0.0452   -2.7801 C      0
    1.7366    0.7352   -3.4302 H      0
    1.3630   -1.0014   -3.0538 H      0
    1.4218    0.3183   -1.3770 N      0
    1.0455    1.5180   -0.7605 C      0
    1.0486    2.5343   -1.1384 H      0
    0.2371    1.0799    0.2081 C      0
   -0.4849    1.6750    0.7547 H      0
    0.2804   -0.3133    0.0737 N      0
    1.3660   -0.8141   -0.5441 C      0
   -0.4618   -1.9607   -0.4053 Fe     0
    0.2789   -2.9789   -2.2107 N      0
    0.7501   -3.5438   -3.0919 C      0
    1.4309   -4.2330   -4.1856 C      0
    1.3870   -5.3101   -4.0420 H      0
    2.4809   -3.9475   -4.2127 H      0
    1.0013   -3.9868   -5.1548 H      0
    0.8069   -2.6983    1.2731 N      0
    1.4565   -3.0759    2.1325 C      0
    2.2917   -3.5871    3.2109 C      0
    2.2562   -4.6738    3.2497 H      0
    1.9584   -3.1940    4.1710 H      0
    3.3269   -3.2860    3.0691 H      0
   -1.3699   -3.8541   -0.1786 C      0
   -1.6526   -2.4574   -0.3956 N      0
   -2.8541   -2.5321   -1.1640 C      0
   -3.3678   -1.7379   -1.6888 H      0
   -3.4731   -3.6677   -0.7627 C      0
   -4.5218   -3.8705   -0.9378 H      0
   -2.6541   -4.0963    0.2923 N      0
   -2.8103   -3.6967    1.6788 C      0
   -3.5789   -4.2873    2.1894 H      0
   -1.8625   -3.7449    2.2266 H      0
   -3.2436   -2.3246    1.4588 N      0
   -4.5737   -1.9129    1.5636 C      0
   -5.3999   -2.4709    1.9892 H      0
   -4.6657   -0.7672    0.8898 C      0
   -5.5842   -0.2211    0.7027 H      0
   -3.3981   -0.4638    0.3736 N      0
   -2.3489   -1.3306    0.8932 C      0
   -3.1716    0.6300   -0.5819 C      0
   -2.9480    1.5243    0.0114 H      0
   -4.1266    0.8262   -1.0822 H      0
   -0.7865   -1.3166    0.3644 C      0
   -0.5782   -1.6015    1.4268 H      0
   -1.3559   -0.3743    0.4604 H      0
   -1.6803   -1.0567   -2.6947 H      0
    2.0799   -0.9089    0.3009 H      0
   -1.3901   -4.3186   -1.1844 H      0
   -2.1499   -0.8349    1.8891 H      0
  1  2  1
  2  3  2
  3  4  1
  3  5  1
  5  6  1
  6  7  1
  2  7  1
  7  8  1
  8  9  1
  8 10  1
  8 11  1
 11 12  1
 12 13  1
 12 14  2
 14 15  1
 14 16  1
 16 17  1
 11 17  1
 17 18  1
  6 18  1
 18 19  1
 19 20  3
 20 21  1
 21 22  1
 21 23  1
 21 24  1
 18 25  1
 25 26  3
 26 27  1
 27 28  1
 27 29  1
 27 30  1
 18 31  1
 31 32  1
 32 33  1
 33 34  1
 33 35  2
 35 36  1
 35 37  1
 31 37  1
 37 38  1
 38 39  1
 38 40  1
 38 41  1
 41 42  1
 42 43  1
 42 44  2
 44 45  1
 44 46  1
 46 47  1
 41 47  1
 18 47  1
 46 48  1
  5 48  1
 48 49  1
 48 50  1
 32 51  1
 16 51  1
 51 52  1
 51 53  1
  6 54  1
 17 55  1
 31 56  1
 47 57  1
M  END
$$$$
