
     RDKit          3D

 35 38  0  0  0  0  0  0  0  0999 V2000
    3.5225   -0.0712   -1.8971 C   0  0  0  0  0  0  0  0  0  0  0  0
    2.1307   -0.1176   -1.7580 C   0  0  0  0  0  0  0  0  0  0  0  0
    1.5112    0.0040   -0.5057 C   0  0  0  0  0  0  0  0  0  0  0  0
    0.0719   -0.0659   -0.3580 N   0  0  0  0  0  0  0  0  0  0  0  0
   -0.7800    0.2653   -1.4071 C   0  0  0  0  0  0  0  0  0  0  0  0
   -0.4402    0.7414   -2.4896 O   0  0  0  0  0  0  0  0  0  0  0  0
   -2.2563    0.0863   -1.1602 C   0  0  2  0  0  0  0  0  0  0  0  0
   -2.9106    1.2912   -0.4539 C   0  0  0  0  0  0  0  0  0  0  0  0
   -3.6900    0.5849    0.6701 C   0  0  2  0  0  0  0  0  0  0  0  0
   -5.0867    1.6889    1.3556 Br  0  0  0  0  0  0  0  0  0  0  0  0
   -2.7164    0.2353    1.6730 O   0  0  0  0  0  0  0  0  0  0  0  0
   -1.9256   -0.8343    1.0925 C   0  0  2  0  0  0  0  0  0  0  0  0
   -1.9791   -2.2304    2.2065 Cl  0  0  0  0  0  0  0  0  0  0  0  0
   -0.4563   -0.3632    0.9840 C   0  0  0  0  0  0  0  0  0  0  0  0
   -2.6334   -1.0965   -0.2478 C   0  0  1  0  0  0  0  0  0  0  0  0
   -4.1010   -0.7234    0.0088 C   0  0  1  0  0  0  0  0  0  0  0  0
   -5.2925   -2.0845    1.0561 I   0  0  0  0  0  0  0  0  0  0  0  0
    2.3533    0.1627    0.6106 C   0  0  0  0  0  0  0  0  0  0  0  0
    3.7570    0.2220    0.4863 C   0  0  0  0  0  0  0  0  0  0  0  0
    4.6203    0.3859    1.7129 C   0  0  0  0  0  0  0  0  0  0  0  0
    5.8497    0.9063    1.4450 F   0  0  0  0  0  0  0  0  0  0  0  0
    4.0625    1.2088    2.6447 F   0  0  0  0  0  0  0  0  0  0  0  0
    4.8428   -0.7979    2.3470 F   0  0  0  0  0  0  0  0  0  0  0  0
    4.3334    0.0960   -0.7807 C   0  0  0  0  0  0  0  0  0  0  0  0
    3.9674   -0.1719   -2.8848 H   0  0  0  0  0  0  0  0  0  0  0  0
    1.5547   -0.2828   -2.6647 H   0  0  0  0  0  0  0  0  0  0  0  0
   -2.7266   -0.0640   -2.1427 H   0  0  0  0  0  0  0  0  0  0  0  0
   -2.1744    2.0048   -0.0668 H   0  0  0  0  0  0  0  0  0  0  0  0
   -3.5687    1.8174   -1.1555 H   0  0  0  0  0  0  0  0  0  0  0  0
   -0.3226    0.5435    1.5879 H   0  0  0  0  0  0  0  0  0  0  0  0
    0.1952   -1.1451    1.3937 H   0  0  0  0  0  0  0  0  0  0  0  0
   -2.4356   -2.0723   -0.6984 H   0  0  0  0  0  0  0  0  0  0  0  0
   -4.6348   -0.5305   -0.9328 H   0  0  0  0  0  0  0  0  0  0  0  0
    1.9432    0.2778    1.6118 H   0  0  0  0  0  0  0  0  0  0  0  0
    5.4149    0.1290   -0.9036 H   0  0  0  0  0  0  0  0  0  0  0  0
  1  2  2  0
  2  3  1  0
  3  4  1  0
  4  5  1  0
  5  6  2  0
  5  7  1  0
  7  8  1  0
  8  9  1  0
  9 10  1  1
  9 11  1  0
 11 12  1  0
 12 13  1  1
 12 14  1  0
 12 15  1  0
 15 16  1  0
 16 17  1  0
  3 18  2  0
 18 19  1  0
 19 20  1  0
 20 21  1  0
 20 22  1  0
 20 23  1  0
 19 24  2  0
 24  1  1  0
 14  4  1  0
 15  7  1  0
 16  9  1  0
  1 25  1  0
  2 26  1  0
  7 27  1  6
  8 28  1  0
  8 29  1  0
 14 30  1  0
 14 31  1  0
 15 32  1  6
 16 33  1  6
 18 34  1  0
 24 35  1  0
M  END
