
  --CCDC--092525    3D                              

 64 65  0  0  0  0  0  0  0  0999 V2000
    1.4611    0.9188    0.0389 H      0
    0.5154    0.5868    0.4647 C      0
   -0.1122    0.1732   -0.3233 H      0
   -0.1867    1.7969    1.0230 C      0
   -1.4369    2.0681    0.7228 N      0
   -1.8409    3.1450    1.4287 N      0
   -3.0059    3.8276    1.1810 O      0
   -4.2946    4.4289    0.9824 C      0
   -4.2277    5.4200    0.5463 H      0
   -4.8904    4.5129    1.8687 H      0
   -4.9912    3.9402    0.3151 H      0
   -2.3735    4.6512    0.1789 C      0
   -2.8928    4.6649   -0.7767 H      0
   -1.3403    4.3575   -0.0050 H      0
   -2.3558    5.7152    0.3111 H      0
   -3.2151    2.9813    0.0006 C      0
   -4.0340    3.2428   -0.6635 H      0
   -3.4008    1.9290    0.1519 H      0
   -2.3814    2.9706   -0.7045 H      0
   -3.7041    2.6814    2.2056 P      0
   -2.5711    1.8742    3.3821 C      0
   -3.1623    1.3197    4.1079 H      0
   -1.9366    2.5396    3.9505 H      0
   -1.9305    1.1422    2.8995 H      0
   -5.2916    2.0411    1.5621 C      0
   -5.2384    1.6103    0.5657 H      0
   -6.0744    2.7969    1.5572 H      0
   -5.6410    1.2486    2.2206 H      0
   -4.7934    3.0105    3.6257 C      0
   -5.6909    3.5474    3.3275 H      0
   -5.1258    2.0616    4.0414 H      0
   -4.3426    3.5569    4.4397 H      0
   -2.6912    5.1175    2.2567 P      0
   -4.1200    5.9467    3.0361 C      0
   -4.7739    6.4211    2.3058 H      0
   -3.7531    6.7550    3.6648 H      0
   -4.7278    5.3248    3.6772 H      0
   -1.1285    6.0252    1.9303 C      0
   -0.4250    5.5651    1.2406 H      0
   -0.6049    6.1868    2.8703 H      0
   -1.3423    7.0163    1.5340 H      0
   -2.1119    4.9316    3.9779 C      0
   -2.6462    4.1975    4.5587 H      0
   -2.2438    5.8811    4.4917 H      0
   -1.0537    4.7072    4.0720 H      0
   -0.8093    3.5377    2.1768 N      0
    0.2206    2.7485    1.9650 C      0
    1.5012    2.8973    2.7211 C      0
    1.5823    3.9272    3.0653 H      0
    2.3281    2.6731    2.0488 H      0
    1.5954    1.9756    3.9274 C      0
    1.0179    2.4278    4.7323 H      0
    2.6433    1.9214    4.2186 H      0
    1.0977    0.5593    3.7487 C      0
    0.0261    0.6037    3.5599 H      0
    1.2806    0.0218    4.6779 H      0
    1.7455   -0.2432    2.6040 C      0
    2.0942   -1.1929    3.0071 H      0
    2.5947    0.3245    2.2265 H      0
    0.8180   -0.5307    1.4506 C      0
    1.2562   -1.3500    0.8826 H      0
   -0.1325   -0.8507    1.8749 H      0
   -3.4281    1.3738    1.7875 H      0
   -3.0613    6.3510    1.7018 H      0
  1  2  1
  2  3  1
  2  4  1
  4  5  2
  5  6  1
  6  7  1
  7  8  1
  8  9  1
  8 10  1
  8 11  1
  7 12  1
 12 13  1
 12 14  1
 12 15  1
  7 16  1
 16 17  1
 16 18  1
 16 19  1
  7 20  1
 20 21  1
 21 22  1
 21 23  1
 21 24  1
 20 25  1
 25 26  1
 25 27  1
 25 28  1
 20 29  1
 29 30  1
 29 31  1
 29 32  1
  7 33  1
 33 34  1
 34 35  1
 34 36  1
 34 37  1
 33 38  1
 38 39  1
 38 40  1
 38 41  1
 33 42  1
 42 43  1
 42 44  1
 42 45  1
  6 46  1
 46 47  2
  4 47  1
 47 48  1
 48 49  1
 48 50  1
 48 51  1
 51 52  1
 51 53  1
 51 54  1
 54 55  1
 54 56  1
 54 57  1
 57 58  1
 57 59  1
 57 60  1
  2 60  1
 60 61  1
 60 62  1
 20 63  1
 33 64  1
M  END
$$$$
