
     RDKit          3D

 57 60  0  0  0  0  0  0  0  0999 V2000
    4.2809    2.8888    0.0875 C   0  0  0  0  0  0  0  0  0  0  0  0
    3.5909    1.6527    0.2141 O   0  0  0  0  0  0  0  0  0  0  0  0
    4.3463    0.5296    0.4432 C   0  0  0  0  0  0  0  0  0  0  0  0
    5.7204    0.5394    0.7095 C   0  0  0  0  0  0  0  0  0  0  0  0
    6.4060   -0.6584    0.9412 C   0  0  0  0  0  0  0  0  0  0  0  0
    5.7272   -1.8745    0.9115 C   0  0  0  0  0  0  0  0  0  0  0  0
    4.3586   -1.8971    0.6491 C   0  0  0  0  0  0  0  0  0  0  0  0
    3.6662   -0.7021    0.4161 C   0  0  0  0  0  0  0  0  0  0  0  0
    2.2585   -0.7687    0.1545 C   0  0  0  0  0  0  0  0  0  0  0  0
    1.0749   -0.8151   -0.0507 C   0  0  0  0  0  0  0  0  0  0  0  0
   -0.3360   -0.8761   -0.2853 C   0  0  0  0  0  0  0  0  0  0  0  0
   -1.2148   -0.2806    0.5497 C   0  0  0  0  0  0  0  0  0  0  0  0
   -2.6389   -0.4730    0.2974 N   0  0  0  0  0  0  0  0  0  0  0  0
   -3.2454    0.4870   -0.6175 C   0  0  0  0  0  0  0  0  0  0  0  0
   -2.7772    1.7943   -0.8041 C   0  0  0  0  0  0  0  0  0  0  0  0
   -3.4525    2.6709   -1.6580 C   0  0  0  0  0  0  0  0  0  0  0  0
   -4.6107    2.2585   -2.3131 C   0  0  0  0  0  0  0  0  0  0  0  0
   -5.1017    0.9718   -2.1104 C   0  0  0  0  0  0  0  0  0  0  0  0
   -4.4270    0.0947   -1.2596 C   0  0  0  0  0  0  0  0  0  0  0  0
   -3.3819   -0.4461    1.8848 S   0  0  0  0  0  0  0  0  0  0  0  0
   -3.3592   -1.7840    2.4373 O   0  0  0  0  0  0  0  0  0  0  0  0
   -4.5625    0.3898    1.9145 O   0  0  0  0  0  0  0  0  0  0  0  0
   -2.0760    0.4331    2.6409 C   0  0  0  0  0  0  0  0  0  0  0  0
   -2.1536    1.0855    3.8621 C   0  0  0  0  0  0  0  0  0  0  0  0
   -1.0287    1.7875    4.2831 C   0  0  0  0  0  0  0  0  0  0  0  0
    0.1138    1.8371    3.4715 C   0  0  0  0  0  0  0  0  0  0  0  0
    0.1485    1.1791    2.2329 C   0  0  0  0  0  0  0  0  0  0  0  0
   -0.9573    0.4486    1.8135 C   0  0  0  0  0  0  0  0  0  0  0  0
   -0.7064   -1.9574   -1.8053 Si  0  0  0  0  0  4  0  0  0  0  0  0
   -1.0752   -0.8771   -3.2975 C   0  0  0  0  0  0  0  0  0  0  0  0
    0.7997   -3.0288   -2.2446 C   0  0  0  0  0  0  0  0  0  0  0  0
   -2.1259   -3.1445   -1.4799 C   0  0  0  0  0  0  0  0  0  0  0  0
    3.5451    3.6566   -0.1681 H   0  0  0  0  0  0  0  0  0  0  0  0
    4.7472    3.1783    1.0347 H   0  0  0  0  0  0  0  0  0  0  0  0
    5.0171    2.8526   -0.7226 H   0  0  0  0  0  0  0  0  0  0  0  0
    6.2894    1.4631    0.7502 H   0  0  0  0  0  0  0  0  0  0  0  0
    7.4732   -0.6390    1.1484 H   0  0  0  0  0  0  0  0  0  0  0  0
    6.2608   -2.8036    1.0954 H   0  0  0  0  0  0  0  0  0  0  0  0
    3.8327   -2.8500    0.6286 H   0  0  0  0  0  0  0  0  0  0  0  0
   -1.8875    2.1581   -0.3006 H   0  0  0  0  0  0  0  0  0  0  0  0
   -3.0780    3.6805   -1.8046 H   0  0  0  0  0  0  0  0  0  0  0  0
   -5.1384    2.9442   -2.9715 H   0  0  0  0  0  0  0  0  0  0  0  0
   -6.0154    0.6521   -2.6041 H   0  0  0  0  0  0  0  0  0  0  0  0
   -4.8317   -0.9004   -1.0952 H   0  0  0  0  0  0  0  0  0  0  0  0
   -3.0576    1.0508    4.4614 H   0  0  0  0  0  0  0  0  0  0  0  0
   -1.0383    2.3102    5.2363 H   0  0  0  0  0  0  0  0  0  0  0  0
    0.9836    2.4027    3.8005 H   0  0  0  0  0  0  0  0  0  0  0  0
    1.0362    1.2773    1.6163 H   0  0  0  0  0  0  0  0  0  0  0  0
   -1.2397   -1.4971   -4.1833 H   0  0  0  0  0  0  0  0  0  0  0  0
   -1.9684   -0.2673   -3.1422 H   0  0  0  0  0  0  0  0  0  0  0  0
   -0.2353   -0.2052   -3.5020 H   0  0  0  0  0  0  0  0  0  0  0  0
    1.6498   -2.4036   -2.5317 H   0  0  0  0  0  0  0  0  0  0  0  0
    1.0890   -3.6535   -1.3945 H   0  0  0  0  0  0  0  0  0  0  0  0
    0.5575   -3.6831   -3.0874 H   0  0  0  0  0  0  0  0  0  0  0  0
   -3.0882   -2.6278   -1.4552 H   0  0  0  0  0  0  0  0  0  0  0  0
   -1.9872   -3.6619   -0.5252 H   0  0  0  0  0  0  0  0  0  0  0  0
   -2.1769   -3.8987   -2.2714 H   0  0  0  0  0  0  0  0  0  0  0  0
  1  2  1  0
  2  3  1  0
  3  4  2  0
  4  5  1  0
  5  6  2  0
  6  7  1  0
  7  8  2  0
  8  9  1  0
  9 10  3  0
 10 11  1  0
 11 12  2  3
 12 13  1  0
 13 14  1  0
 14 15  2  0
 15 16  1  0
 16 17  2  0
 17 18  1  0
 18 19  2  0
 13 20  1  0
 20 21  2  0
 20 22  2  0
 20 23  1  0
 23 24  2  0
 24 25  1  0
 25 26  2  0
 26 27  1  0
 27 28  2  0
 11 29  1  0
 29 30  1  0
 29 31  1  0
 29 32  1  0
  8  3  1  0
 28 12  1  0
 19 14  1  0
 28 23  1  0
  1 33  1  0
  1 34  1  0
  1 35  1  0
  4 36  1  0
  5 37  1  0
  6 38  1  0
  7 39  1  0
 15 40  1  0
 16 41  1  0
 17 42  1  0
 18 43  1  0
 19 44  1  0
 24 45  1  0
 25 46  1  0
 26 47  1  0
 27 48  1  0
 30 49  1  0
 30 50  1  0
 30 51  1  0
 31 52  1  0
 31 53  1  0
 31 54  1  0
 32 55  1  0
 32 56  1  0
 32 57  1  0
M  END
