
  --CCDC--092525    3D                              

 57 64  0  0  0  0  0  0  0  0999 V2000
    1.1134   -2.9686   -4.5737 H      0
    0.2910   -2.3895   -4.1679 C      0
   -1.0171   -2.5237   -4.4441 C      0
   -1.4559   -3.2367   -5.1331 H      0
   -1.7194   -1.6058   -3.6499 N      0
   -0.8505   -0.8425   -2.8341 C      0
    0.3994   -1.3725   -3.2239 N      0
    1.5785   -0.8814   -2.5226 C      0
    1.9626   -1.6719   -1.8659 H      0
    2.3734   -0.5822   -3.2161 H      0
    1.1663    0.2367   -1.6893 N      0
    1.3144    1.6107   -1.9115 C      0
    1.7653    2.0863   -2.7798 H      0
    0.8025    2.2167   -0.8339 C      0
    0.7675    3.2832   -0.6494 H      0
    0.3359    1.2041    0.0184 N      0
    0.5601   -0.1034   -0.4513 C      0
   -1.1103   -1.5191   -0.7713 Fe     0
   -1.6958   -3.5976   -1.1867 N      0
   -2.0003   -4.6786   -1.4028 C      0
   -2.3939   -6.0420   -1.7275 C      0
   -2.3376   -6.2158   -2.8010 H      0
   -1.7414   -6.7591   -1.2342 H      0
   -3.4166   -6.2402   -1.4083 H      0
    0.5252   -2.8611   -0.1569 N      0
    1.3546   -3.6138    0.0615 C      0
    2.4610   -4.5466    0.2569 C      0
    2.8555   -4.8832   -0.7002 H      0
    2.1501   -5.4208    0.8162 H      0
    3.2785   -4.0646    0.8031 H      0
   -1.9536   -0.4474    0.9557 C      0
   -1.0211    0.1908    1.8104 N      0
   -1.0333   -0.3651    3.0898 C      0
   -0.4143   -0.0473    3.9235 H      0
   -1.9922   -1.3102    3.1116 C      0
   -2.2820   -1.8949    3.9769 H      0
   -2.5746   -1.3635    1.8352 N      0
   -3.7032   -2.1684    1.3324 C      0
   -3.5573   -3.2064    1.6565 H      0
   -4.6160   -1.8174    1.8312 H      0
   -3.9520   -2.2154   -0.1208 N      0
   -4.7507   -3.1718   -0.7617 C      0
   -5.3535   -3.9278   -0.2660 H      0
   -4.6066   -3.0138   -2.0874 C      0
   -5.0778   -3.6101   -2.8637 H      0
   -3.7006   -1.9640   -2.2784 N      0
   -3.2781   -1.3709   -1.0557 C      0
   -3.1692   -1.4113   -3.5291 C      0
   -3.4082   -0.3409   -3.5581 H      0
   -3.6643   -1.8891   -4.3847 H      0
   -0.2634    1.3574    1.3388 C      0
    0.5345    1.5836    2.0541 H      0
   -0.9314    2.2264    1.3149 H      0
   -0.9358    0.2465   -2.9723 H      0
    1.2438   -0.5819    0.2691 H      0
   -2.7132    0.2814    0.6303 H      0
   -3.6121   -0.3243   -1.0084 H      0
  1  2  1
  2  3  2
  3  4  1
  3  5  1
  5  6  1
  6  7  1
  2  7  1
  7  8  1
  8  9  1
  8 10  1
  8 11  1
 11 12  1
 12 13  1
 12 14  2
 14 15  1
 14 16  1
 16 17  1
 11 17  1
 17 18  1
  6 18  1
 18 19  1
 19 20  3
 20 21  1
 21 22  1
 21 23  1
 21 24  1
 18 25  1
 25 26  3
 26 27  1
 27 28  1
 27 29  1
 27 30  1
 18 31  1
 31 32  1
 32 33  1
 33 34  1
 33 35  2
 35 36  1
 35 37  1
 31 37  1
 37 38  1
 38 39  1
 38 40  1
 38 41  1
 41 42  1
 42 43  1
 42 44  2
 44 45  1
 44 46  1
 46 47  1
 41 47  1
 18 47  1
 46 48  1
  5 48  1
 48 49  1
 48 50  1
 32 51  1
 16 51  1
 51 52  1
 51 53  1
  6 54  1
 17 55  1
 31 56  1
 47 57  1
M  END
$$$$
