
  --CCDC--092525    3D                              

 19 24  0  0  0  0  0  0  0  0999 V2000
   -0.0750    0.1047    0.0011 H      0
   -1.6206    0.4056   -0.0032 Si     0
   -3.0539   -0.9570    0.5963 Cl     0
   -3.2266    0.1198   -1.2720 Cl     0
   -3.4494    1.1109    0.6514 Cl     0
    0.6558    1.8808    0.0000 Mn     0
   -0.5231    2.1860   -1.9391 C      0
   -1.1098    2.3379   -2.9041 O      0
    1.5296    0.5976   -1.6836 C      0
    1.9655   -0.0400   -2.5220 O      0
    0.6146    3.9262    0.7382 C      0
    1.7988    3.7306   -0.0056 C      0
    2.5462    2.7128    0.6893 C      0
    1.8141    1.9764    1.8144 C      0
    2.2285    0.8622    2.7497 C      0
    0.6919    3.0219    1.8545 C      0
    1.8254    1.0257    3.7471 H      0
    3.3124    0.8062    2.8262 H      0
    1.8646   -0.0984    2.3907 H      0
  1  2  1
  2  3  1
  2  4  1
  2  5  1
  2  6  1
  1  6  1
  6  7  1
  7  8  3
  6  9  1
  9 10  3
  6 11  1
 11 12  4
  6 12  1
 12 13  4
  6 13  1
 13 14  4
  6 14  1
 14 15  1
 14 16  4
  6 16  1
 11 16  4
 15 17  1
 15 18  1
 15 19  1
M  END
$$$$
