
 OpenBabel09252519273D

 53 57  0  0  0  0  0  0  0  0999 V2000
    0.9855    0.0867   -0.0476 I   0  0  0  0  0  0  0  0  0  0  0  0
    3.6955    0.0867   -0.0476 Cu  0  0  0  0  0  0  0  0  0  0  0  0
    4.3890    1.2896   -0.0471 S   0  0  0  0  0  3  0  0  0  0  0  0
    5.6560    1.3389    0.2984 P   0  0  0  0  0  0  0  0  0  0  0  0
    6.4142    0.1090    0.7066 C   0  0  0  0  0  0  0  0  0  0  0  0
    5.6779   -1.1349    0.3024 P   0  0  0  0  0  0  0  0  0  0  0  0
    4.3779   -1.0968   -0.0481 S   0  0  0  0  0  3  0  0  0  0  0  0
    6.1564   -0.8695   -1.4439 C   0  0  0  0  0  0  0  0  0  0  0  0
    6.8930   -1.8370   -2.1072 C   0  0  0  0  0  0  0  0  0  0  0  0
    7.4066   -1.4113   -3.3550 C   0  0  0  0  0  0  0  0  0  0  0  0
    6.9672   -0.3631   -4.0275 C   0  0  0  0  0  0  0  0  0  0  0  0
    6.1878    0.5210   -3.3344 C   0  0  0  0  0  0  0  0  0  0  0  0
    5.7543    0.2345   -2.0625 C   0  0  0  0  0  0  0  0  0  0  0  0
    5.4217    0.2998    1.4090 C   0  0  0  0  0  0  0  0  0  0  0  0
    6.2024    1.4385    1.2966 C   0  0  0  0  0  0  0  0  0  0  0  0
    6.1860    2.2608    2.4479 C   0  0  0  0  0  0  0  0  0  0  0  0
    5.2740    2.1970    3.4010 C   0  0  0  0  0  0  0  0  0  0  0  0
    4.4886    1.0779    3.4171 C   0  0  0  0  0  0  0  0  0  0  0  0
    4.5415    0.1626    2.3938 C   0  0  0  0  0  0  0  0  0  0  0  0
    4.4660    1.0570    1.6598 C   0  0  0  0  0  0  0  0  0  0  0  0
    3.1229    0.8855    1.3676 C   0  0  0  0  0  0  0  0  0  0  0  0
    2.2735    0.9876    2.4945 C   0  0  0  0  0  0  0  0  0  0  0  0
    2.6772    0.8896    3.7481 C   0  0  0  0  0  0  0  0  0  0  0  0
    4.0229    0.9993    3.9639 C   0  0  0  0  0  0  0  0  0  0  0  0
    4.9064    1.0369    2.9123 C   0  0  0  0  0  0  0  0  0  0  0  0
    7.1505    2.3554    0.5853 C   0  0  0  0  0  0  0  0  0  0  0  0
    7.1130    3.3790    1.5177 C   0  0  0  0  0  0  0  0  0  0  0  0
    8.2117    4.2669    1.4387 C   0  0  0  0  0  0  0  0  0  0  0  0
    9.3485    3.9989    0.8224 C   0  0  0  0  0  0  0  0  0  0  0  0
    9.3392    2.9334   -0.0344 C   0  0  0  0  0  0  0  0  0  0  0  0
    8.2522    2.0963   -0.1092 C   0  0  0  0  0  0  0  0  0  0  0  0
    6.5208    0.1116    1.7712 H   0  0  0  0  0  0  0  0  0  0  0  0
    7.3742    0.1167    0.2340 H   0  0  0  0  0  0  0  0  0  0  0  0
    7.0586   -2.8174   -1.7119 H   0  0  0  0  0  0  0  0  0  0  0  0
    8.2066   -1.9781   -3.7836 H   0  0  0  0  0  0  0  0  0  0  0  0
    7.2081   -0.2137   -5.0593 H   0  0  0  0  0  0  0  0  0  0  0  0
    5.9116    1.4494   -3.7891 H   0  0  0  0  0  0  0  0  0  0  0  0
    5.0866    0.9071   -1.5659 H   0  0  0  0  0  0  0  0  0  0  0  0
    6.7666    1.6748    0.4187 H   0  0  0  0  0  0  0  0  0  0  0  0
    6.9669    2.9846    2.5538 H   0  0  0  0  0  0  0  0  0  0  0  0
    5.1561    2.9790    4.1217 H   0  0  0  0  0  0  0  0  0  0  0  0
    3.8232    0.9126    4.2386 H   0  0  0  0  0  0  0  0  0  0  0  0
    3.8674   -0.6683    2.3903 H   0  0  0  0  0  0  0  0  0  0  0  0
    2.7607    0.6933    0.3793 H   0  0  0  0  0  0  0  0  0  0  0  0
    1.2315    1.1560    2.3188 H   0  0  0  0  0  0  0  0  0  0  0  0
    1.9883    0.7329    4.5516 H   0  0  0  0  0  0  0  0  0  0  0  0
    4.3932    1.0566    4.9661 H   0  0  0  0  0  0  0  0  0  0  0  0
    5.9590    1.0501    3.1044 H   0  0  0  0  0  0  0  0  0  0  0  0
    6.3246    3.4882    2.2329 H   0  0  0  0  0  0  0  0  0  0  0  0
    8.1149    5.2220    1.9113 H   0  0  0  0  0  0  0  0  0  0  0  0
   10.2295    4.5841    0.9848 H   0  0  0  0  0  0  0  0  0  0  0  0
   10.1906    2.7488   -0.6556 H   0  0  0  0  0  0  0  0  0  0  0  0
    8.2938    1.2277   -0.7327 H   0  0  0  0  0  0  0  0  0  0  0  0
  1  2  1  0  0  0  0
  2  3  1  0  0  0  0
  2  7  1  0  0  0  0
  3  4  2  0  0  0  0
  4  5  1  0  0  0  0
  4 20  1  0  0  0  0
  4 26  1  0  0  0  0
  5  6  1  0  0  0  0
  5 32  1  0  0  0  0
  5 33  1  0  0  0  0
  6  7  2  0  0  0  0
  6  8  1  0  0  0  0
  6 14  1  0  0  0  0
  8  9  1  0  0  0  0
  8 13  2  0  0  0  0
  9 10  2  0  0  0  0
  9 34  1  0  0  0  0
 10 11  1  0  0  0  0
 10 35  1  0  0  0  0
 11 12  2  0  0  0  0
 11 36  1  0  0  0  0
 12 13  1  0  0  0  0
 12 37  1  0  0  0  0
 13 38  1  0  0  0  0
 14 15  1  0  0  0  0
 14 19  2  0  0  0  0
 15 16  2  0  0  0  0
 15 39  1  0  0  0  0
 16 17  1  0  0  0  0
 16 40  1  0  0  0  0
 17 18  2  0  0  0  0
 17 41  1  0  0  0  0
 18 19  1  0  0  0  0
 18 42  1  0  0  0  0
 19 43  1  0  0  0  0
 20 21  1  0  0  0  0
 20 25  2  0  0  0  0
 21 22  2  0  0  0  0
 21 44  1  0  0  0  0
 22 23  1  0  0  0  0
 22 45  1  0  0  0  0
 23 24  2  0  0  0  0
 23 46  1  0  0  0  0
 24 25  1  0  0  0  0
 24 47  1  0  0  0  0
 25 48  1  0  0  0  0
 26 27  1  0  0  0  0
 26 31  2  0  0  0  0
 27 28  2  0  0  0  0
 27 49  1  0  0  0  0
 28 29  1  0  0  0  0
 28 50  1  0  0  0  0
 29 30  2  0  0  0  0
 29 51  1  0  0  0  0
 30 31  1  0  0  0  0
 30 52  1  0  0  0  0
 31 53  1  0  0  0  0
M  END
$$$$
