
 OpenBabel09252514213D

 73 85  0  0  0  0  0  0  0  0999 V2000
    1.0209   -0.0901   -0.0381 Cl  0  0  0  0  0  0  0  0  0  0  0  0
    3.7909   -0.0901   -0.0381 Zr  0  0  0  0  0  0  0  0  0  0  0  0
    3.1355   -1.3194   -2.4323 Cl  0  0  0  0  0  0  0  0  0  0  0  0
    5.5493    0.1103    0.9387 C   0  0  0  0  0  0  0  0  0  0  0  0
    7.0966   -0.4088    1.3176 C   0  0  0  0  0  0  0  0  0  0  0  0
    5.9891   -0.9219    0.7168 C   0  0  0  0  0  0  0  0  0  0  0  0
    6.9077   -1.4673   -0.1206 C   0  0  0  0  0  0  0  0  0  0  0  0
    7.1687   -0.8978   -1.3447 C   0  0  0  0  0  0  0  0  0  0  0  0
    6.7908    0.4022   -1.5942 C   0  0  0  0  0  0  0  0  0  0  0  0
    5.8701    1.0207   -0.8084 C   0  0  0  0  0  0  0  0  0  0  0  0
    5.2180    0.3135    0.3481 C   0  0  0  0  0  0  0  0  0  0  0  0
    5.1618    1.2627    1.5491 C   0  0  0  0  0  0  0  0  0  0  0  0
    4.4988    0.5527    2.7298 Si  0  0  0  0  0  0  0  0  0  0  0  0
    4.4387    1.7085    4.1986 C   0  0  0  0  0  0  0  0  0  0  0  0
    5.4871   -0.9709    3.1760 C   0  0  0  0  0  0  0  0  0  0  0  0
    3.0753    0.1428    2.3443 Si  0  0  0  0  0  0  0  0  0  0  0  0
    2.2635   -0.7274    3.7868 C   0  0  0  0  0  0  0  0  0  0  0  0
    2.0859    1.6663    1.9004 C   0  0  0  0  0  0  0  0  0  0  0  0
    3.1265   -0.8010    1.1413 C   0  0  0  0  0  0  0  0  0  0  0  0
    3.4575   -3.0945   -2.3766 C   0  0  0  0  0  3  0  0  0  0  0  0
    3.3366   -2.2732   -1.1034 C   0  0  0  0  0  0  0  0  0  0  0  0
    2.7552   -2.8131    0.0017 C   0  0  0  0  0  0  0  0  0  0  0  0
    2.2954   -4.0627   -0.0436 C   0  0  0  0  0  0  0  0  0  0  0  0
    1.7242   -4.6140    1.0186 C   0  0  0  0  0  0  0  0  0  0  0  0
    1.6026   -3.8682    2.2100 C   0  0  0  0  0  0  0  0  0  0  0  0
    2.0798   -2.6023    2.2423 C   0  0  0  0  0  0  0  0  0  0  0  0
    2.6536   -2.0765    1.1236 C   0  0  0  0  0  0  0  0  0  0  0  0
    3.9869   -0.5206   -1.0559 Si  0  0  0  0  0  0  0  0  0  0  0  0
    2.5858    0.6538   -0.6631 C   0  0  0  0  0  0  0  0  0  0  0  0
    5.3058   -0.3806    0.2624 C   0  0  0  0  0  0  0  0  0  0  0  0
    4.7197   -0.0824   -2.7196 C   0  0  0  0  0  0  0  0  0  0  0  0
    6.9215    0.6780    2.8293 Si  0  0  0  0  0  0  0  0  0  0  0  0
    5.9018    2.1852    2.3987 C   0  0  0  0  0  0  0  0  0  0  0  0
    6.0719   -0.2810    4.1914 C   0  0  0  0  0  0  0  0  0  0  0  0
    8.6157    1.2165    3.4094 C   0  0  0  0  0  0  0  0  0  0  0  0
    7.4347   -2.3503    0.1752 H   0  0  0  0  0  0  0  0  0  0  0  0
    7.6656   -1.4654   -2.1036 H   0  0  0  0  0  0  0  0  0  0  0  0
    7.2266    0.9316   -2.4156 H   0  0  0  0  0  0  0  0  0  0  0  0
    5.6025    2.0354   -1.0177 H   0  0  0  0  0  0  0  0  0  0  0  0
    3.9747    1.2115    5.0248 H   0  0  0  0  0  0  0  0  0  0  0  0
    5.4338    1.9950    4.4680 H   0  0  0  0  0  0  0  0  0  0  0  0
    3.8732    2.5803    3.9435 H   0  0  0  0  0  0  0  0  0  0  0  0
    5.5214   -1.6324    2.3357 H   0  0  0  0  0  0  0  0  0  0  0  0
    6.4822   -0.6843    3.4452 H   0  0  0  0  0  0  0  0  0  0  0  0
    5.0231   -1.4677    4.0023 H   0  0  0  0  0  0  0  0  0  0  0  0
    2.2284   -0.0669    4.6278 H   0  0  0  0  0  0  0  0  0  0  0  0
    1.2687   -1.0139    3.5165 H   0  0  0  0  0  0  0  0  0  0  0  0
    2.8290   -1.5993    4.0414 H   0  0  0  0  0  0  0  0  0  0  0  0
    2.5501    2.1651    1.0754 H   0  0  0  0  0  0  0  0  0  0  0  0
    1.0913    1.3793    1.6298 H   0  0  0  0  0  0  0  0  0  0  0  0
    2.0503    2.3261    2.7420 H   0  0  0  0  0  0  0  0  0  0  0  0
    2.3880   -4.6279   -0.9474 H   0  0  0  0  0  0  0  0  0  0  0  0
    1.3579   -5.6183    0.9725 H   0  0  0  0  0  0  0  0  0  0  0  0
    1.1403   -4.2968    3.0745 H   0  0  0  0  0  0  0  0  0  0  0  0
    2.0072   -2.0200    3.1371 H   0  0  0  0  0  0  0  0  0  0  0  0
    2.1665    0.4031    0.2888 H   0  0  0  0  0  0  0  0  0  0  0  0
    2.9579    1.6567   -0.6360 H   0  0  0  0  0  0  0  0  0  0  0  0
    1.8311    0.5737   -1.4175 H   0  0  0  0  0  0  0  0  0  0  0  0
    6.1075   -1.0526    0.0377 H   0  0  0  0  0  0  0  0  0  0  0  0
    5.6779    0.6222    0.2896 H   0  0  0  0  0  0  0  0  0  0  0  0
    4.8865   -0.6313    1.2144 H   0  0  0  0  0  0  0  0  0  0  0  0
    5.5214   -0.7544   -2.9444 H   0  0  0  0  0  0  0  0  0  0  0  0
    3.9651   -0.1625   -3.4740 H   0  0  0  0  0  0  0  0  0  0  0  0
    5.0919    0.9204   -2.6925 H   0  0  0  0  0  0  0  0  0  0  0  0
    4.9324    1.8770    2.0668 H   0  0  0  0  0  0  0  0  0  0  0  0
    5.8016    2.8070    3.2637 H   0  0  0  0  0  0  0  0  0  0  0  0
    6.3879    2.7339    1.6193 H   0  0  0  0  0  0  0  0  0  0  0  0
    6.6553   -1.1435    4.4378 H   0  0  0  0  0  0  0  0  0  0  0  0
    5.9717    0.3408    5.0564 H   0  0  0  0  0  0  0  0  0  0  0  0
    5.1025   -0.5892    3.8595 H   0  0  0  0  0  0  0  0  0  0  0  0
    9.1991    0.3541    3.6558 H   0  0  0  0  0  0  0  0  0  0  0  0
    9.1018    1.7653    2.6300 H   0  0  0  0  0  0  0  0  0  0  0  0
    8.5155    1.8384    4.2744 H   0  0  0  0  0  0  0  0  0  0  0  0
  1  2  1  0  0  0  0
  2  3  1  0  0  0  0
  2  4  1  0  0  0  0
  2  5  1  0  0  0  0
  2  6  1  0  0  0  0
  2 11  1  0  0  0  0
  2 12  1  0  0  0  0
  2 19  1  0  0  0  0
  2 20  1  0  0  0  0
  2 21  1  0  0  0  0
  2 22  1  0  0  0  0
  2 27  1  0  0  0  0
  4  5  1  0  0  0  0
  4 12  2  0  0  0  0
  5  6  2  0  0  0  0
  5 32  1  0  0  0  0
  6  7  1  0  0  0  0
  6 11  1  0  0  0  0
  7  8  2  0  0  0  0
  7 36  1  0  0  0  0
  8  9  1  0  0  0  0
  8 37  1  0  0  0  0
  9 10  2  0  0  0  0
  9 38  1  0  0  0  0
 10 11  1  0  0  0  0
 10 39  1  0  0  0  0
 11 12  1  0  0  0  0
 12 13  1  0  0  0  0
 13 14  1  0  0  0  0
 13 15  1  0  0  0  0
 13 16  1  0  0  0  0
 14 40  1  0  0  0  0
 14 41  1  0  0  0  0
 14 42  1  0  0  0  0
 15 43  1  0  0  0  0
 15 44  1  0  0  0  0
 15 45  1  0  0  0  0
 16 17  1  0  0  0  0
 16 18  1  0  0  0  0
 16 19  1  0  0  0  0
 17 46  1  0  0  0  0
 17 47  1  0  0  0  0
 17 48  1  0  0  0  0
 18 49  1  0  0  0  0
 18 50  1  0  0  0  0
 18 51  1  0  0  0  0
 19 20  1  0  0  0  0
 19 27  2  0  0  0  0
 20 21  1  0  0  0  0
 21 22  2  0  0  0  0
 21 28  1  0  0  0  0
 22 23  1  0  0  0  0
 22 27  1  0  0  0  0
 23 24  2  0  0  0  0
 23 52  1  0  0  0  0
 24 25  1  0  0  0  0
 24 53  1  0  0  0  0
 25 26  2  0  0  0  0
 25 54  1  0  0  0  0
 26 27  1  0  0  0  0
 26 55  1  0  0  0  0
 28 29  1  0  0  0  0
 28 30  1  0  0  0  0
 28 31  1  0  0  0  0
 29 56  1  0  0  0  0
 29 57  1  0  0  0  0
 29 58  1  0  0  0  0
 30 59  1  0  0  0  0
 30 60  1  0  0  0  0
 30 61  1  0  0  0  0
 31 62  1  0  0  0  0
 31 63  1  0  0  0  0
 31 64  1  0  0  0  0
 32 33  1  0  0  0  0
 32 34  1  0  0  0  0
 32 35  1  0  0  0  0
 33 65  1  0  0  0  0
 33 66  1  0  0  0  0
 33 67  1  0  0  0  0
 34 68  1  0  0  0  0
 34 69  1  0  0  0  0
 34 70  1  0  0  0  0
 35 71  1  0  0  0  0
 35 72  1  0  0  0  0
 35 73  1  0  0  0  0
M  END
$$$$
