
  --CCDC--092525    3D                              

 73 79  0  0  0  0  0  0  0  0999 V2000
   -1.4634    0.8255    0.9816 H      0
   -1.1151   -0.1336    0.3883 C      0
   -0.7875   -1.1850    1.2363 C      0
   -0.9921   -2.4971    0.8636 C      0
   -1.5184   -2.7816   -0.3734 C      0
   -1.7723   -1.7573   -1.2658 C      0
   -1.5108   -0.4304   -0.9240 C      0
   -1.5696    0.5839   -1.8986 N      0
   -0.9836    1.6921   -1.4948 C      0
   -0.9214    2.9175   -2.3860 C      0
   -1.1118    2.9716   -3.7669 C      0
   -1.0441    4.1862   -4.4316 C      0
   -0.8074    5.3538   -3.7369 C      0
   -0.6385    5.3216   -2.3631 C      0
   -0.6830    4.1020   -1.6859 C      0
   -0.6162    3.8376    0.0967 P      0
    0.5876    5.0919    0.6201 C      0
    1.6871    5.3597   -0.1896 C      0
    2.6774    6.2394    0.2142 C      0
    2.5818    6.8810    1.4281 C      0
    1.4838    6.6594    2.2282 C      0
    0.4875    5.7852    1.8257 C      0
   -2.2349    4.3063    0.7610 C      0
   -3.2306    3.3524    0.9486 C      0
   -4.4876    3.7281    1.3925 C      0
   -4.7732    5.0546    1.6309 C      0
   -3.8071    6.0126    1.4151 C      0
   -2.5476    5.6453    0.9716 C      0
   -0.3070    1.5416    0.3097 Co     0
    1.7959    1.0680   -0.5467 P      0
    1.5451    0.1114   -2.0616 C      0
    2.7747   -0.0033    0.5344 C      0
    2.7638    2.5111   -1.0464 C      0
    0.7538    2.0787    2.3132 P      0
   -0.4088    2.9868    3.3586 C      0
    2.3516    2.9317    2.2325 C      0
    1.1011    0.6296    3.3407 C      0
   -0.4102   -0.9909    2.2277 H      0
   -0.7513   -3.3017    1.5506 H      0
   -1.7189   -3.8100   -0.6553 H      0
   -2.1526   -1.9908   -2.2547 H      0
   -1.3104    2.0608   -4.3221 H      0
   -1.1815    4.2190   -5.5074 H      0
   -0.7592    6.2994   -4.2668 H      0
   -0.4743    6.2428   -1.8139 H      0
    1.7662    4.8810   -1.1583 H      0
    3.5314    6.4240   -0.4290 H      0
    3.3627    7.5626    1.7487 H      0
    1.3952    7.1775    3.1773 H      0
   -0.3896    5.6730    2.4508 H      0
   -3.0260    2.3065    0.7484 H      0
   -5.2518    2.9743    1.5510 H      0
   -5.7577    5.3444    1.9829 H      0
   -4.0344    7.0588    1.5911 H      0
   -1.7984    6.4085    0.7892 H      0
    0.9548   -0.7804   -1.8616 H      0
    1.0255    0.7015   -2.8134 H      0
    2.4993   -0.2016   -2.4803 H      0
    2.2772   -0.9610    0.6723 H      0
    2.9277    0.4358    1.5154 H      0
    3.7526   -0.1944    0.0974 H      0
    2.2289    3.0807   -1.8025 H      0
    3.7124    2.1984   -1.4778 H      0
    2.9813    3.1673   -0.2101 H      0
   -1.2166    2.3318    3.6780 H      0
   -0.8596    3.8136    2.8262 H      0
    0.0846    3.3707    4.2491 H      0
    2.2809    3.9505    1.8799 H      0
    3.0515    2.4103    1.5868 H      0
    2.7934    2.9743    3.2259 H      0
    0.2050    0.3129    3.8685 H      0
    1.8488    0.8728    4.0927 H      0
    1.4694   -0.2116    2.7617 H      0
  1  2  1
  2  3  4
  3  4  4
  4  5  4
  5  6  4
  6  7  4
  2  7  4
  7  8  1
  8  9  2
  9 10  1
 10 11  4
 11 12  4
 12 13  4
 13 14  4
 14 15  4
 10 15  4
 15 16  1
 16 17  1
 17 18  4
 18 19  4
 19 20  4
 20 21  4
 21 22  4
 17 22  4
 16 23  1
 23 24  4
 24 25  4
 25 26  4
 26 27  4
 27 28  4
 23 28  4
 16 29  1
  1 29  1
  2 29  1
  9 29  1
 29 30  1
 30 31  1
 30 32  1
 30 33  1
 29 34  1
 34 35  1
 34 36  1
 34 37  1
  3 38  1
  4 39  1
  5 40  1
  6 41  1
 11 42  1
 12 43  1
 13 44  1
 14 45  1
 18 46  1
 19 47  1
 20 48  1
 21 49  1
 22 50  1
 24 51  1
 25 52  1
 26 53  1
 27 54  1
 28 55  1
 31 56  1
 31 57  1
 31 58  1
 32 59  1
 32 60  1
 32 61  1
 33 62  1
 33 63  1
 33 64  1
 35 65  1
 35 66  1
 35 67  1
 36 68  1
 36 69  1
 36 70  1
 37 71  1
 37 72  1
 37 73  1
M  END
$$$$
