
  --CCDC--092525    3D                              

 24 29  0  0  0  0  0  0  0  0999 V2000
    1.6910   -1.3240    0.1195 H      0
    1.4345   -0.4029   -0.3997 C      0
    2.1441    0.3650   -0.0984 H      0
    1.5521   -0.5715   -1.4681 H      0
   -0.0034    0.0272   -0.0720 C      0
   -1.1681    0.4406   -0.9289 C      0
   -0.8413    0.4821   -2.0254 H      0
   -2.4444    0.1336   -0.1629 C      0
   -3.3061    0.0288   -0.9065 H      0
   -2.0227   -0.6175    1.1409 C      0
   -2.5271   -1.6304    1.2414 H      0
   -0.4813   -0.6850    1.1454 C      0
   -0.0451   -1.7323    1.2051 H      0
   -1.3214   -1.7079   -0.5374 Mn     0
   -2.9325   -3.3147   -0.2732 C      0
   -3.7373   -4.1066   -0.1108 O      0
   -0.3780   -3.7049    0.0675 C      0
    0.0915   -4.6988    0.3685 O      0
   -0.6173   -2.6151   -2.0770 H      0
   -1.9199   -2.8701   -2.9192 Si     0
   -3.9857   -2.8483   -2.8699 Cl     0
   -2.2377   -1.2336   -4.1404 Cl     0
   -2.2679   -4.8846   -2.6161 Cl     0
   -1.3356   -3.4061   -4.1998 H      0
  1  2  1
  2  3  1
  2  4  1
  2  5  1
  5  6  4
  6  7  1
  6  8  4
  8  9  1
  8 10  4
 10 11  1
 10 12  4
  5 12  4
 12 13  1
 12 14  1
  8 14  1
 10 14  1
  6 14  1
  5 14  1
 14 15  1
 15 16  3
 14 17  1
 17 18  3
 14 19  1
 19 20  1
 14 20  1
 20 21  1
 20 22  1
 20 23  1
 20 24  1
M  END
$$$$
