
  --CCDC--092525    3D                              

 87103  0  0  0  0  0  0  0  0999 V2000
    3.1390   -3.1353   -7.3318 H      0
    3.3609   -2.6554   -6.3843 C      0
    3.3177   -1.2915   -6.2570 C      0
    3.0833   -0.6806   -7.1225 H      0
    3.5820   -0.6804   -5.0419 C      0
    3.6131    0.3875   -5.0666 H      0
    3.8309   -1.3896   -3.8593 C      0
    4.0333   -0.7465   -2.1352 P      3
    5.4627   -1.7422   -1.5309 C      0
    6.4150   -2.1143   -2.4888 C      0
    6.2897   -1.7952   -3.5169 H      0
    7.5341   -2.8719   -2.1877 C      0
    8.2217   -3.1558   -2.9776 H      0
    7.7818   -3.2604   -0.8954 C      0
    8.6522   -3.8623   -0.6555 H      0
    6.9152   -2.8571    0.0897 C      0
    7.1116   -3.1310    1.1211 H      0
    5.7992   -2.0948   -0.2160 C      0
    5.2037   -1.7616    0.6130 H      0
    3.8940    1.7542   -1.6226 Ru     0
    3.0175    0.9447   -0.3004 H      0
    1.8554   -0.2411   -0.9162 Ru     0
    2.0979    0.8631   -3.0576 Cl     0
   -0.0533    0.2865   -0.8159 C      0
   -0.1813    1.1308   -2.0709 C      0
   -1.2419    1.3639   -2.1384 H      0
   -0.0064    0.5836   -2.9924 H      0
    0.2588    2.1083   -2.0307 H      0
    0.6936    0.1665    0.6233 C      0
    1.3806    1.1144    1.6389 C      0
    2.4449    1.2313    1.4950 H      0
    1.2470    0.7170    2.6429 H      0
    0.9031    2.0915    1.6273 H      0
    1.5948   -1.1425    0.7937 C      0
    3.0359   -1.2160    1.3565 C      0
    3.6892   -0.5716    0.7754 H      0
    3.4235   -2.2316    1.3275 H      0
    3.0607   -0.8773    2.3900 H      0
    1.7487   -2.1724   -0.4176 C      0
    2.7970   -3.1390   -0.9870 C      0
    2.4007   -4.1503   -0.9258 H      0
    3.7034   -3.1427   -0.4027 H      0
    2.9846   -2.9630   -2.0218 H      0
    0.8178   -1.8762   -1.5685 C      0
    0.7434   -2.4262   -2.9760 C      0
   -0.2906   -2.4999   -3.3069 H      0
    1.1866   -3.4183   -3.0258 H      0
    1.2768   -1.7810   -3.6712 H      0
   -0.0946   -1.1907   -0.8258 C      0
   -0.0693   -2.3690    0.2756 C      0
    0.4695   -3.3003    0.0888 H      0
   -1.0845   -2.7483    0.1774 H      0
   -0.0924   -2.1103    1.3372 H      0
    4.1978    3.2823   -2.9296 C      0
    3.3775    2.2522   -3.7109 C      0
    3.8644    2.2266   -4.6804 H      0
    2.3932    2.5937   -4.0338 H      0
    3.4734    1.2659   -3.3041 H      0
    5.4346    2.4350   -2.9316 C      0
    5.9514    1.2101   -3.7684 C      0
    7.0016    1.3655   -4.0069 H      0
    5.4325    1.1074   -4.7176 H      0
    5.8921    0.2602   -3.2635 H      0
    5.9648    1.9888   -1.6523 C      0
    6.7256    0.8003   -1.0099 C      0
    6.0898    0.2422   -0.3438 H      0
    7.5502    1.1826   -0.4118 H      0
    7.1601    0.1503   -1.7614 H      0
    5.4027    2.5027   -0.4171 C      0
    5.1772    1.9169    1.0175 C      0
    6.0383    1.3370    1.3422 H      0
    4.3190    1.2639    1.0697 H      0
    5.0564    2.7103    1.7504 H      0
    4.2480    3.4421   -0.3984 C      0
    3.0139    3.6463    0.5669 C      0
    2.2689    2.8792    0.5250 H      0
    2.5436    4.6152    0.4021 H      0
    3.3625    3.6665    1.5964 H      0
    3.5983    3.7581   -1.6303 C      0
    2.1624    3.1769   -1.6192 C      0
    1.6522    3.3268   -2.5613 H      0
    1.4942    3.7900   -1.0173 H      0
    2.0620    2.1830   -1.2551 H      0
    3.9753   -2.7691   -4.0787 C      0
    4.3355   -3.3981   -3.2727 H      0
    3.7187   -3.3934   -5.2871 C      0
    3.8106   -4.4715   -5.3680 H      0
  1  2  1
  2  3  4
  3  4  1
  3  5  4
  5  6  1
  5  7  4
  7  8  1
  8  9  1
  9 10  4
 10 11  1
 10 12  4
 12 13  1
 12 14  4
 14 15  1
 14 16  4
 16 17  1
 16 18  4
  9 18  4
 18 19  1
  8 20  1
 20 21  1
 21 22  1
  8 22  1
 20 22  1
 22 23  1
 20 23  1
 22 24  1
 24 25  1
 25 26  1
 25 27  1
 25 28  1
 24 29  4
 22 29  1
 29 30  1
 30 31  1
 30 32  1
 30 33  1
 29 34  4
 22 34  1
 34 35  1
 35 36  1
 35 37  1
 35 38  1
 34 39  4
 22 39  1
 39 40  1
 40 41  1
 40 42  1
 40 43  1
 39 44  4
 22 44  1
 44 45  1
 45 46  1
 45 47  1
 45 48  1
 44 49  4
 24 49  4
 22 49  1
 49 50  1
 50 51  1
 50 52  1
 50 53  1
 20 54  1
 54 55  1
 55 56  1
 55 57  1
 55 58  1
 54 59  4
 20 59  1
 59 60  1
 60 61  1
 60 62  1
 60 63  1
 59 64  4
 20 64  1
 64 65  1
 65 66  1
 65 67  1
 65 68  1
 64 69  4
 20 69  1
 69 70  1
 70 71  1
 70 72  1
 70 73  1
 69 74  4
 20 74  1
 74 75  1
 75 76  1
 75 77  1
 75 78  1
 74 79  4
 54 79  4
 20 79  1
 79 80  1
 80 81  1
 80 82  1
 80 83  1
  7 84  4
 84 85  1
 84 86  4
  2 86  4
 86 87  1
M  CHG  1   8   1
M  END
$$$$
