
     RDKit          3D

 28 28  0  0  0  0  0  0  0  0999 V2000
   -3.8705   -1.3172    0.3666 C   0  0  0  0  0  0  0  0  0  0  0  0
   -2.4084   -0.9662    0.1208 C   0  0  0  0  0  0  0  0  0  0  0  0
   -1.8232    0.4006    0.5066 C   0  0  0  0  0  0  0  0  0  0  0  0
   -0.3452    0.4689    0.3598 C   0  0  0  0  0  0  0  0  0  0  0  0
    0.4562   -0.4411   -0.2231 C   0  0  0  0  0  0  0  0  0  0  0  0
    1.9175   -0.2919   -0.3168 C   0  0  0  0  0  0  0  0  0  0  0  0
    2.7263   -1.4200   -0.1129 C   0  0  0  0  0  0  0  0  0  0  0  0
    4.1158   -1.3247   -0.2202 C   0  0  0  0  0  0  0  0  0  0  0  0
    4.6960   -0.1044   -0.5423 C   0  0  0  0  0  0  0  0  0  0  0  0
    6.0280   -0.0139   -0.6469 F   0  0  0  0  0  0  0  0  0  0  0  0
    3.9132    1.0216   -0.7635 C   0  0  0  0  0  0  0  0  0  0  0  0
    2.5234    0.9275   -0.6564 C   0  0  0  0  0  0  0  0  0  0  0  0
   -2.5137    1.4861    0.9573 C   0  0  0  0  0  0  0  0  0  0  0  0
   -1.8624    2.7181    1.2813 C   0  0  0  0  0  0  0  0  0  0  0  0
   -1.3201    3.7118    1.5382 N   0  0  0  0  0  0  0  0  0  0  0  0
   -3.9279    1.5203    1.1233 C   0  0  0  0  0  0  0  0  0  0  0  0
   -5.0784    1.5770    1.2674 N   0  0  0  0  0  0  0  0  0  0  0  0
   -4.5388   -0.7165   -0.2568 H   0  0  0  0  0  0  0  0  0  0  0  0
   -4.0455   -2.3650    0.0967 H   0  0  0  0  0  0  0  0  0  0  0  0
   -4.1410   -1.2073    1.4210 H   0  0  0  0  0  0  0  0  0  0  0  0
   -2.2266   -1.1193   -0.9516 H   0  0  0  0  0  0  0  0  0  0  0  0
   -1.8343   -1.7349    0.6569 H   0  0  0  0  0  0  0  0  0  0  0  0
    0.1485    1.3470    0.7785 H   0  0  0  0  0  0  0  0  0  0  0  0
    0.0719   -1.3605   -0.6552 H   0  0  0  0  0  0  0  0  0  0  0  0
    2.2826   -2.3806    0.1401 H   0  0  0  0  0  0  0  0  0  0  0  0
    4.7464   -2.1925   -0.0559 H   0  0  0  0  0  0  0  0  0  0  0  0
    4.3868    1.9633   -1.0224 H   0  0  0  0  0  0  0  0  0  0  0  0
    1.9233    1.8137   -0.8506 H   0  0  0  0  0  0  0  0  0  0  0  0
  1  2  1  0
  2  3  1  0
  3  4  1  0
  4  5  2  3
  5  6  1  0
  6  7  2  0
  7  8  1  0
  8  9  2  0
  9 10  1  0
  9 11  1  0
 11 12  2  0
  3 13  2  3
 13 14  1  0
 14 15  3  0
 13 16  1  0
 16 17  3  0
 12  6  1  0
  1 18  1  0
  1 19  1  0
  1 20  1  0
  2 21  1  0
  2 22  1  0
  4 23  1  0
  5 24  1  0
  7 25  1  0
  8 26  1  0
 11 27  1  0
 12 28  1  0
M  END
