
     RDKit          3D

  0  0  0  0  0  0  0  0  0  0999 V3000
M  V30 BEGIN CTAB
M  V30 COUNTS 114 121 0 0 0
M  V30 BEGIN ATOM
M  V30 1 C -5.538886 0.073184 0.508306 0
M  V30 2 C -4.572907 0.256398 1.517767 0
M  V30 3 C -3.192413 0.219815 1.259490 0
M  V30 4 C -2.608854 0.720565 2.519773 0
M  V30 5 C -3.331899 0.210831 3.756411 0
M  V30 6 C -2.988381 2.249308 2.643085 0
M  V30 7 C -2.727301 -0.015699 -0.049676 0
M  V30 8 N -1.282760 -0.203702 -0.122136 0
M  V30 9 C -0.619210 1.124810 0.024733 0
M  V30 10 C 0.678486 1.073602 0.231052 0
M  V30 11 C 1.152422 2.488280 0.363011 0
M  V30 12 C 2.312711 3.157051 0.586837 0
M  V30 13 C 2.453511 4.513681 0.654039 0
M  V30 14 C 1.329709 5.300699 0.482450 0
M  V30 15 C 0.122218 4.726334 0.255295 0
M  V30 16 C -1.037883 5.475143 0.055391 0
M  V30 17 C -2.143090 4.681055 -0.172469 0
M  V30 18 C -2.137452 3.316414 -0.200531 0
M  V30 19 C -0.982972 2.580449 0.002737 0
M  V30 20 C 0.108402 3.379238 0.213368 0
M  V30 21 N 1.401192 -0.205433 0.129063 0
M  V30 22 C 2.881077 -0.095810 0.347033 0
M  V30 23 C 3.296861 -0.246490 1.704850 0
M  V30 24 C 2.541333 -0.344020 2.971536 0
M  V30 25 C 3.409181 -0.851781 4.143794 0
M  V30 26 C 2.186160 1.105816 3.404855 0
M  V30 27 C 4.657799 -0.219993 1.995957 0
M  V30 28 C 5.654802 -0.054584 1.062396 0
M  V30 29 C 5.214451 0.091499 -0.228675 0
M  V30 30 C 3.902841 0.074387 -0.574158 0
M  V30 31 C 3.651357 0.352078 -1.975208 0
M  V30 32 C 4.890305 -0.081278 -2.791656 0
M  V30 33 C 3.639078 1.884587 -2.163759 0
M  V30 34 Eu 0.158399 -1.682211 -0.366952 0 VAL=7
M  V30 35 N 1.513221 -2.514316 0.937513 0
M  V30 36 C 2.235680 -3.326867 1.279579 0
M  V30 37 S 2.748990 -4.796442 1.699678 0
M  V30 38 O -0.859376 -2.382099 1.222587 0
M  V30 39 C -0.893206 -1.892836 2.453435 0
M  V30 40 C -1.679706 -3.575160 1.375074 0
M  V30 41 C -0.938810 -4.290287 0.290830 0
M  V30 42 O -1.019986 -3.210236 -0.586347 0
M  V30 43 C -2.219440 -3.177041 -1.206795 0
M  V30 44 O 1.100379 -2.765518 -1.751162 0
M  V30 45 C 2.412305 -2.790126 -1.893612 0
M  V30 46 C 0.516768 -3.141894 -3.023619 0
M  V30 47 C 0.585438 -1.714850 -3.405475 0
M  V30 48 O 0.031840 -1.103278 -2.209043 0
M  V30 49 C 0.041901 0.217686 -2.667749 0
M  V30 50 C -3.650120 -0.182713 -1.038578 0
M  V30 51 C -3.468446 -0.245967 -2.450437 0
M  V30 52 C -4.647514 -0.844571 -3.219991 0
M  V30 53 C -3.561443 1.225134 -2.962979 0
M  V30 54 C -4.996415 -0.137696 -0.741625 0
M  V30 55 H -6.604511 0.095248 0.711510 0
M  V30 56 H -5.082632 0.418964 2.487549 0
M  V30 57 H -1.565113 0.823257 2.519663 0
M  V30 58 H -3.842517 -0.777473 3.564739 0
M  V30 59 H -2.545035 -0.011169 4.511606 0
M  V30 60 H -4.017424 0.954597 4.123690 0
M  V30 61 H -3.397834 2.408038 3.657580 0
M  V30 62 H -2.098707 2.882835 2.596042 0
M  V30 63 H -3.796543 2.478575 1.949204 0
M  V30 64 H 3.161247 2.467907 0.721142 0
M  V30 65 H 3.463829 4.838280 0.840979 0
M  V30 66 H 1.449384 6.376515 0.537952 0
M  V30 67 H -0.995825 6.536249 0.088187 0
M  V30 68 H -3.091979 5.181404 -0.344392 0
M  V30 69 H -2.996878 2.678647 -0.374887 0
M  V30 70 H 1.683589 -0.972056 2.992043 0
M  V30 71 H 2.673665 -1.164831 4.944416 0
M  V30 72 H 3.978563 -1.731212 3.848526 0
M  V30 73 H 3.959886 -0.025179 4.585632 0
M  V30 74 H 2.966657 1.790032 3.022819 0
M  V30 75 H 1.200778 1.367532 3.037012 0
M  V30 76 H 2.208171 1.197506 4.514298 0
M  V30 77 H 5.114092 -0.325087 2.996225 0
M  V30 78 H 6.709382 -0.037138 1.291547 0
M  V30 79 H 6.016923 0.227481 -0.948240 0
M  V30 80 H 2.826387 -0.113566 -2.434171 0
M  V30 81 H 5.589616 0.750846 -2.772807 0
M  V30 82 H 5.259847 -1.008062 -2.309616 0
M  V30 83 H 4.534610 -0.284075 -3.835755 0
M  V30 84 H 4.286052 2.297376 -1.379590 0
M  V30 85 H 2.640490 2.297665 -2.092995 0
M  V30 86 H 4.032723 2.145352 -3.174011 0
M  V30 87 H -1.947157 -1.860512 2.780344 0
M  V30 88 H -0.364441 -0.956252 2.632803 0
M  V30 89 H -0.353318 -2.626375 3.153673 0
M  V30 90 H -1.346404 -3.954284 2.360148 0
M  V30 91 H -2.709070 -3.372858 1.265754 0
M  V30 92 H -1.585211 -5.022000 -0.139879 0
M  V30 93 H 0.067931 -4.586371 0.543386 0
M  V30 94 H -2.219194 -2.425851 -1.996532 0
M  V30 95 H -2.360044 -4.159825 -1.730186 0
M  V30 96 H -3.080219 -2.943606 -0.560556 0
M  V30 97 H 3.034068 -2.500430 -1.025126 0
M  V30 98 H 2.812114 -2.349580 -2.800127 0
M  V30 99 H 2.656326 -3.934009 -1.922736 0
M  V30 100 H 1.297811 -3.673523 -3.524312 0
M  V30 101 H -0.436625 -3.614785 -2.921233 0
M  V30 102 H -0.158315 -1.462608 -4.221074 0
M  V30 103 H 1.476474 -1.285284 -3.650949 0
M  V30 104 H -0.459246 0.148380 -3.669997 0
M  V30 105 H -0.779039 0.756140 -2.111345 0
M  V30 106 H 0.906900 0.797987 -2.575869 0
M  V30 107 H -2.528154 -0.506792 -2.904222 0
M  V30 108 H -5.444935 -0.125295 -3.381390 0
M  V30 109 H -4.253451 -1.110502 -4.222614 0
M  V30 110 H -5.074826 -1.711503 -2.684447 0
M  V30 111 H -4.575444 1.616151 -2.729146 0
M  V30 112 H -2.756537 1.849012 -2.594574 0
M  V30 113 H -3.454212 1.115113 -4.062332 0
M  V30 114 H -5.817022 -0.270146 -1.472653 0
M  V30 END ATOM
M  V30 BEGIN BOND
M  V30 1 2 1 2
M  V30 2 1 2 3
M  V30 3 1 3 4
M  V30 4 1 4 5
M  V30 5 1 4 6
M  V30 6 2 3 7
M  V30 7 1 7 8
M  V30 8 1 8 9
M  V30 9 2 9 10
M  V30 10 1 10 11
M  V30 11 2 11 12
M  V30 12 1 12 13
M  V30 13 2 13 14
M  V30 14 1 14 15
M  V30 15 2 15 16
M  V30 16 1 16 17
M  V30 17 2 17 18
M  V30 18 1 18 19
M  V30 19 2 19 20
M  V30 20 1 10 21
M  V30 21 1 21 22
M  V30 22 2 22 23
M  V30 23 1 23 24
M  V30 24 1 24 25
M  V30 25 1 24 26
M  V30 26 1 23 27
M  V30 27 2 27 28
M  V30 28 1 28 29
M  V30 29 2 29 30
M  V30 30 1 30 31
M  V30 31 1 31 32
M  V30 32 1 31 33
M  V30 33 1 21 34
M  V30 34 1 34 35
M  V30 35 2 35 36
M  V30 36 2 36 37
M  V30 37 9 38 34
M  V30 38 1 38 39
M  V30 39 1 38 40
M  V30 40 1 40 41
M  V30 41 1 41 42
M  V30 42 1 42 43
M  V30 43 9 44 34
M  V30 44 1 44 45
M  V30 45 1 44 46
M  V30 46 1 46 47
M  V30 47 1 47 48
M  V30 48 1 48 49
M  V30 49 1 7 50
M  V30 50 1 50 51
M  V30 51 1 51 52
M  V30 52 1 51 53
M  V30 53 2 50 54
M  V30 54 1 54 1
M  V30 55 1 34 8
M  V30 56 1 19 9
M  V30 57 1 30 22
M  V30 58 9 42 34
M  V30 59 1 20 11
M  V30 60 9 48 34
M  V30 61 1 20 15
M  V30 62 1 1 55
M  V30 63 1 2 56
M  V30 64 1 4 57
M  V30 65 1 5 58
M  V30 66 1 5 59
M  V30 67 1 5 60
M  V30 68 1 6 61
M  V30 69 1 6 62
M  V30 70 1 6 63
M  V30 71 1 12 64
M  V30 72 1 13 65
M  V30 73 1 14 66
M  V30 74 1 16 67
M  V30 75 1 17 68
M  V30 76 1 18 69
M  V30 77 1 24 70
M  V30 78 1 25 71
M  V30 79 1 25 72
M  V30 80 1 25 73
M  V30 81 1 26 74
M  V30 82 1 26 75
M  V30 83 1 26 76
M  V30 84 1 27 77
M  V30 85 1 28 78
M  V30 86 1 29 79
M  V30 87 1 31 80
M  V30 88 1 32 81
M  V30 89 1 32 82
M  V30 90 1 32 83
M  V30 91 1 33 84
M  V30 92 1 33 85
M  V30 93 1 33 86
M  V30 94 1 39 87
M  V30 95 1 39 88
M  V30 96 1 39 89
M  V30 97 1 40 90
M  V30 98 1 40 91
M  V30 99 1 41 92
M  V30 100 1 41 93
M  V30 101 1 43 94
M  V30 102 1 43 95
M  V30 103 1 43 96
M  V30 104 1 45 97
M  V30 105 1 45 98
M  V30 106 1 45 99
M  V30 107 1 46 100
M  V30 108 1 46 101
M  V30 109 1 47 102
M  V30 110 1 47 103
M  V30 111 1 49 104
M  V30 112 1 49 105
M  V30 113 1 49 106
M  V30 114 1 51 107
M  V30 115 1 52 108
M  V30 116 1 52 109
M  V30 117 1 52 110
M  V30 118 1 53 111
M  V30 119 1 53 112
M  V30 120 1 53 113
M  V30 121 1 54 114
M  V30 END BOND
M  V30 END CTAB
M  END
