
 OpenBabel09252516303D

 49 54  0  0  1  0  0  0  0  0999 V2000
    0.9975    0.0674    0.0738 H   0  0  0  0  0  0  0  0  0  0  0  0
    2.0675    0.0674    0.0738 C   0  0  0  0  0  3  0  0  0  0  0  0
    2.5741    0.9013    1.2393 C   0  0  0  0  0  3  0  0  0  0  0  0
    2.2175    0.4843    2.1578 H   0  0  0  0  0  0  0  0  0  0  0  0
    4.0941    0.9013    1.2393 C   0  0  0  0  0  3  0  0  0  0  0  0
    4.6523    0.8253    2.6837 C   0  0  0  0  0  3  0  0  0  0  0  0
    3.7908   -0.0802    3.5487 C   0  0  0  0  0  3  0  0  0  0  0  0
    2.5741    0.6598   -1.2311 C   0  0  0  0  0  3  0  0  0  0  0  0
    2.2175    0.0728   -2.0515 H   0  0  0  0  0  0  0  0  0  0  0  0
    2.4078    0.5316    3.7020 C   0  0  0  0  0  0  0  0  0  0  0  0
    1.9563    0.6388    2.7378 H   0  0  0  0  0  0  0  0  0  0  0  0
    1.8013   -0.1058    4.3109 H   0  0  0  0  0  0  0  0  0  0  0  0
    8.3977    0.7839    3.1292 P   0  0  0  0  0  0  0  0  0  0  0  0
    7.9242    0.8006    4.8968 C   0  0  0  0  0  0  0  0  0  0  0  0
    6.9187   -0.0473    5.0945 F   0  0  0  0  0  0  0  0  0  0  0  0
    8.9657    0.4337    5.6383 F   0  0  0  0  0  0  0  0  0  0  0  0
    7.5441    2.0273    5.2425 F   0  0  0  0  0  0  0  0  0  0  0  0
    8.9699   -0.7698    2.3498 C   0  0  0  0  0  0  0  0  0  0  0  0
    9.8278   -0.4864    1.3738 F   0  0  0  0  0  0  0  0  0  0  0  0
    9.5709   -1.5283    3.2621 F   0  0  0  0  0  0  0  0  0  0  0  0
    7.9267   -1.4239    1.8470 F   0  0  0  0  0  0  0  0  0  0  0  0
    6.0604    0.2347    2.5083 Ir  0  0  0  0  0  0  0  0  0  0  0  0
    7.1005    1.3233    2.5098 C   0  0  0  0  0  0  0  0  0  0  0  0
    6.5081    2.2083    2.6131 H   0  0  0  0  0  0  0  0  0  0  0  0
    7.1644    2.1440    1.8263 H   0  0  0  0  0  0  0  0  0  0  0  0
    7.9352    1.0672    3.5356 C   0  0  1  0  0  0  0  0  0  0  0  0
    8.5771    0.2605    3.8220 H   0  0  0  0  0  0  0  0  0  0  0  0
    7.5214   -0.1405    4.2459 C   0  0  2  0  0  0  0  0  0  0  0  0
    8.4853   -1.1189    3.5946 C   0  0  0  0  0  0  0  0  0  0  0  0
    8.3135   -1.1394    2.5387 H   0  0  0  0  0  0  0  0  0  0  0  0
    9.4915   -0.8093    3.7863 H   0  0  0  0  0  0  0  0  0  0  0  0
    8.3296   -2.0966    4.0005 H   0  0  0  0  0  0  0  0  0  0  0  0
    6.4067   -0.6722    3.6590 C   0  0  0  0  0  0  0  0  0  0  0  0
    5.7590   -1.2163    3.0038 H   0  0  0  0  0  0  0  0  0  0  0  0
    5.8844   -1.5569    3.9582 H   0  0  0  0  0  0  0  0  0  0  0  0
    6.0699   -0.5320    1.1817 P   0  0  0  0  0  0  0  0  0  0  0  0
    6.5237   -1.6750   -0.1734 C   0  0  0  0  0  0  0  0  0  0  0  0
    5.8310   -1.3650   -1.2656 F   0  0  0  0  0  0  0  0  0  0  0  0
    7.8246   -1.5666   -0.4279 F   0  0  0  0  0  0  0  0  0  0  0  0
    6.2454   -2.9242    0.1884 F   0  0  0  0  0  0  0  0  0  0  0  0
    6.3337    1.2684    0.9871 C   0  0  0  0  0  0  0  0  0  0  0  0
    5.1691    1.9015    1.0957 F   0  0  0  0  0  0  0  0  0  0  0  0
    7.1628    1.6998    1.9334 F   0  0  0  0  0  0  0  0  0  0  0  0
    6.8611    1.5124   -0.2093 F   0  0  0  0  0  0  0  0  0  0  0  0
    4.6521   -0.3886    0.5860 C   0  0  0  0  0  0  0  0  0  0  0  0
    4.0384   -1.2438    0.7779 H   0  0  0  0  0  0  0  0  0  0  0  0
    4.6962   -0.2866   -0.4783 H   0  0  0  0  0  0  0  0  0  0  0  0
    9.6983    1.0895    3.4748 H   0  0  0  0  0  0  0  0  0  0  0  0
    5.5287   -1.0277    2.3504 H   0  0  0  0  0  0  0  0  0  0  0  0
  1  2  1  0  0  0  0
  2  3  1  0  0  0  0
  2  8  1  0  0  0  0
  3  4  1  0  0  0  0
  3  5  1  0  0  0  0
  5  6  1  0  0  0  0
  5 45  1  0  0  0  0
  6  7  1  0  0  0  0
  6 22  1  0  0  0  0
  7  8  1  0  0  0  0
  7 10  1  0  0  0  0
  8  9  1  0  0  0  0
 10 11  1  0  0  0  0
 10 12  1  0  0  0  0
 10 13  1  0  0  0  0
 13 14  1  0  0  0  0
 13 18  1  0  0  0  0
 13 22  1  0  0  0  0
 13 48  1  0  0  0  0
 14 15  1  0  0  0  0
 14 16  1  0  0  0  0
 14 17  1  0  0  0  0
 18 19  1  0  0  0  0
 18 20  1  0  0  0  0
 18 21  1  0  0  0  0
 22 23  1  0  0  0  0
 22 26  1  0  0  0  0
 22 28  1  0  0  0  0
 22 33  1  0  0  0  0
 22 36  1  0  0  0  0
 23 24  1  0  0  0  0
 23 25  1  0  0  0  0
 23 26  2  0  0  0  0
 26 27  1  6  0  0  0
 26 28  1  0  0  0  0
 28 29  1  6  0  0  0
 28 33  2  0  0  0  0
 29 30  1  0  0  0  0
 29 31  1  0  0  0  0
 29 32  1  0  0  0  0
 33 34  1  0  0  0  0
 33 35  1  0  0  0  0
 36 37  1  0  0  0  0
 36 41  1  0  0  0  0
 36 45  1  0  0  0  0
 36 49  1  0  0  0  0
 37 38  1  0  0  0  0
 37 39  1  0  0  0  0
 37 40  1  0  0  0  0
 41 42  1  0  0  0  0
 41 43  1  0  0  0  0
 41 44  1  0  0  0  0
 45 46  1  0  0  0  0
 45 47  1  0  0  0  0
M  END
$$$$
