
  --CCDC--092525    3D                              

 34 33  0  0  0  0  0  0  0  0999 V2000
    0.0000   -0.0000   -0.0000 H      0
    0.5440    0.9422   -0.0000 C      0
    0.7406    1.2201   -1.0334 H      0
    1.4993    0.7821    0.4955 H      0
   -0.2212    1.9800    0.6770 C      0
   -0.8282    2.8036    1.1822 N      0
   -2.2912    4.7884    2.3999 La     0
   -4.6662    3.5735    4.3086 Br     0
   -0.9343    2.9081    4.7199 Br     0
   -1.7428    6.2203   -0.4995 Br     0
   -2.2138    6.6403    4.4312 N      0
   -2.1843    7.4102    5.2725 C      0
   -2.1804    8.3839    6.3553 C      0
   -3.1968    8.6436    6.6440 H      0
   -1.6708    9.2960    6.0519 H      0
   -1.6708    7.9857    7.2302 H      0
    0.1998    5.9505    2.4723 N      0
    1.2331    6.4329    2.5014 C      0
    2.5623    7.0275    2.5112 C      0
    2.9206    7.1877    1.4964 H      0
    3.2709    6.3793    3.0224 H      0
    2.5514    7.9878    3.0224 H      0
   -4.2351    6.6784    1.9404 N      0
   -5.0404    7.4633    1.7473 C      0
   -6.0765    8.4484    1.4702 C      0
   -6.2106    8.5759    0.3980 H      0
   -5.8140    9.4145    1.8962 H      0
   -7.0281    8.1374    1.8962 H      0
   -3.9836    3.2654    0.8575 N      0
   -4.6856    2.6334    0.2175 C      0
   -5.5736    1.7980   -0.5790 C      0
   -5.4035    1.9580   -1.6416 H      0
   -6.6151    2.0278   -0.3641 H      0
   -5.4077    0.7444   -0.3641 H      0
  1  2  1
  2  3  1
  2  4  1
  2  5  1
  5  6  3
  6  7  1
  7  8  1
  7  9  1
  7 10  1
  7 11  1
 11 12  3
 12 13  1
 13 14  1
 13 15  1
 13 16  1
  7 17  1
 17 18  3
 18 19  1
 19 20  1
 19 21  1
 19 22  1
  7 23  1
 23 24  3
 24 25  1
 25 26  1
 25 27  1
 25 28  1
  7 29  1
 29 30  3
 30 31  1
 31 32  1
 31 33  1
 31 34  1
M  END
$$$$
