
 OpenBabel09252519013D

 42 41  0  0  0  0  0  0  0  0999 V2000
    0.9716   -0.0477   -0.0832 C   0  0  0  0  0  0  0  0  0  0  0  0
    0.2650    0.8682   -1.8597 Pt  0  0  0  0  0  0  0  0  0  0  0  0
    1.9959    0.2064   -2.8894 C   0  0  0  0  0  0  0  0  0  0  0  0
   -0.7344   -0.9256   -2.3870 C   0  0  0  0  0  0  0  0  0  0  0  0
   -0.4250    1.7624   -3.5944 N   0  0  0  0  0  0  0  0  0  0  0  0
    0.2618    1.6934   -4.6615 N   0  3  0  0  0  0  0  0  0  0  0  0
    0.9486    1.6244   -5.7286 N   0  5  0  0  0  0  0  0  0  0  0  0
   -1.7191    1.6267   -0.6795 P   0  0  0  0  0  4  0  0  0  0  0  0
   -1.3125    1.9015    1.0835 C   0  0  0  0  0  0  0  0  0  0  0  0
   -2.3086    3.1925   -1.4208 C   0  0  0  0  0  0  0  0  0  0  0  0
   -3.0305    0.3572   -0.8123 C   0  0  0  0  0  0  0  0  0  0  0  0
    1.4105    2.9242   -1.2554 P   0  0  0  0  0  4  0  0  0  0  0  0
    0.7656    3.5341    0.3449 C   0  0  0  0  0  0  0  0  0  0  0  0
    3.2056    2.6013   -1.1065 C   0  0  0  0  0  0  0  0  0  0  0  0
    1.1229    4.1858   -2.5496 C   0  0  0  0  0  0  0  0  0  0  0  0
    0.6150   -1.0554   -0.0352 H   0  0  0  0  0  0  0  0  0  0  0  0
    0.6150    0.4977    0.7655 H   0  0  0  0  0  0  0  0  0  0  0  0
    2.0416   -0.0477   -0.0832 H   0  0  0  0  0  0  0  0  0  0  0  0
    2.3406   -0.7091   -2.4560 H   0  0  0  0  0  0  0  0  0  0  0  0
    1.7581    0.0457   -3.9202 H   0  0  0  0  0  0  0  0  0  0  0  0
    2.7627    0.9487   -2.8118 H   0  0  0  0  0  0  0  0  0  0  0  0
   -1.7840   -0.7368   -2.4740 H   0  0  0  0  0  0  0  0  0  0  0  0
   -0.3574   -1.2822   -3.3227 H   0  0  0  0  0  0  0  0  0  0  0  0
   -0.5663   -1.6632   -1.6303 H   0  0  0  0  0  0  0  0  0  0  0  0
   -0.5457    2.6437    1.1611 H   0  0  0  0  0  0  0  0  0  0  0  0
   -2.1861    2.2355    1.6032 H   0  0  0  0  0  0  0  0  0  0  0  0
   -0.9678    0.9859    1.5169 H   0  0  0  0  0  0  0  0  0  0  0  0
   -2.5464    3.0318   -2.4516 H   0  0  0  0  0  0  0  0  0  0  0  0
   -3.1822    3.5265   -0.9011 H   0  0  0  0  0  0  0  0  0  0  0  0
   -1.5418    3.9348   -1.3431 H   0  0  0  0  0  0  0  0  0  0  0  0
   -3.2683    0.1965   -1.8431 H   0  0  0  0  0  0  0  0  0  0  0  0
   -2.6859   -0.5583   -0.3788 H   0  0  0  0  0  0  0  0  0  0  0  0
   -3.9042    0.6912   -0.2926 H   0  0  0  0  0  0  0  0  0  0  0  0
    0.9337    2.7965    1.1016 H   0  0  0  0  0  0  0  0  0  0  0  0
    1.2700    4.4394    0.6110 H   0  0  0  0  0  0  0  0  0  0  0  0
   -0.2840    3.7229    0.2579 H   0  0  0  0  0  0  0  0  0  0  0  0
    3.5826    2.2447   -2.0422 H   0  0  0  0  0  0  0  0  0  0  0  0
    3.7100    3.5067   -0.8404 H   0  0  0  0  0  0  0  0  0  0  0  0
    3.3737    1.8637   -0.3498 H   0  0  0  0  0  0  0  0  0  0  0  0
    1.5000    3.8292   -3.4853 H   0  0  0  0  0  0  0  0  0  0  0  0
    0.0733    4.3746   -2.6366 H   0  0  0  0  0  0  0  0  0  0  0  0
    1.6273    5.0911   -2.2834 H   0  0  0  0  0  0  0  0  0  0  0  0
  1  2  1  0  0  0  0
  1 16  1  0  0  0  0
  1 17  1  0  0  0  0
  1 18  1  0  0  0  0
  2  3  1  0  0  0  0
  2  4  1  0  0  0  0
  2  5  1  0  0  0  0
  2  8  1  0  0  0  0
  2 12  1  0  0  0  0
  3 19  1  0  0  0  0
  3 20  1  0  0  0  0
  3 21  1  0  0  0  0
  4 22  1  0  0  0  0
  4 23  1  0  0  0  0
  4 24  1  0  0  0  0
  5  6  2  0  0  0  0
  6  7  2  0  0  0  0
  8  9  1  0  0  0  0
  8 10  1  0  0  0  0
  8 11  1  0  0  0  0
  9 25  1  0  0  0  0
  9 26  1  0  0  0  0
  9 27  1  0  0  0  0
 10 28  1  0  0  0  0
 10 29  1  0  0  0  0
 10 30  1  0  0  0  0
 11 31  1  0  0  0  0
 11 32  1  0  0  0  0
 11 33  1  0  0  0  0
 12 13  1  0  0  0  0
 12 14  1  0  0  0  0
 12 15  1  0  0  0  0
 13 34  1  0  0  0  0
 13 35  1  0  0  0  0
 13 36  1  0  0  0  0
 14 37  1  0  0  0  0
 14 38  1  0  0  0  0
 14 39  1  0  0  0  0
 15 40  1  0  0  0  0
 15 41  1  0  0  0  0
 15 42  1  0  0  0  0
M  CHG  2   6   1   7  -1
M  END
$$$$
