
 OpenBabel09252515393D

 53 52  0  0  0  0  0  0  0  0999 V2000
    0.9885    0.0939   -0.0324 C   0  0  0  0  0  0  0  0  0  0  0  0
    0.2618   -1.6264    1.0923 Rh  0  0  0  0  0  0  0  0  0  0  0  0
    2.5562   -1.5365    2.7122 I   0  0  0  0  0  0  0  0  0  0  0  0
   -1.0628    0.0973    2.8729 I   0  0  0  0  0  0  0  0  0  0  0  0
   -0.4648   -3.3467    2.2170 C   0  0  0  0  0  0  0  0  0  0  0  0
   -0.8709   -4.3079    2.8455 O   0  0  0  0  0  0  0  0  0  0  0  0
   -1.7712   -1.7060   -0.3431 P   0  0  0  0  0  4  0  0  0  0  0  0
   -1.3646   -1.0756   -2.0122 C   0  0  0  0  0  0  0  0  0  0  0  0
   -0.2753   -1.9384   -2.6282 C   0  0  0  0  0  0  0  0  0  0  0  0
   -2.3607   -3.4338   -0.4705 C   0  0  0  0  0  0  0  0  0  0  0  0
   -2.6985   -3.9574    0.9159 C   0  0  0  0  0  0  0  0  0  0  0  0
   -3.0826   -0.6672    0.3986 C   0  0  0  0  0  0  0  0  0  0  0  0
   -3.4204   -1.1908    1.7850 C   0  0  0  0  0  0  0  0  0  0  0  0
    1.4356   -3.1537   -0.4855 P   0  0  0  0  0  4  0  0  0  0  0  0
    0.7908   -2.8950   -2.1784 C   0  0  0  0  0  0  0  0  0  0  0  0
    1.0296   -1.4533   -2.5967 C   0  0  0  0  0  0  0  0  0  0  0  0
    3.2308   -2.7994   -0.4557 C   0  0  0  0  0  0  0  0  0  0  0  0
    3.7664   -3.0143    0.9504 C   0  0  0  0  0  0  0  0  0  0  0  0
    1.1481   -4.8894    0.0181 C   0  0  0  0  0  0  0  0  0  0  0  0
    1.6837   -5.1044    1.4243 C   0  0  0  0  0  0  0  0  0  0  0  0
    0.6318    0.9942    0.4229 H   0  0  0  0  0  0  0  0  0  0  0  0
    0.6318    0.0380   -1.0396 H   0  0  0  0  0  0  0  0  0  0  0  0
    2.0585    0.0939   -0.0324 H   0  0  0  0  0  0  0  0  0  0  0  0
   -2.2382   -1.1098   -2.6290 H   0  0  0  0  0  0  0  0  0  0  0  0
   -1.0199   -0.0654   -1.9377 H   0  0  0  0  0  0  0  0  0  0  0  0
   -0.6200   -2.9487   -2.7027 H   0  0  0  0  0  0  0  0  0  0  0  0
   -0.0375   -1.5698   -3.6042 H   0  0  0  0  0  0  0  0  0  0  0  0
    0.5983   -1.9042   -2.0114 H   0  0  0  0  0  0  0  0  0  0  0  0
   -3.2343   -3.4680   -1.0873 H   0  0  0  0  0  0  0  0  0  0  0  0
   -1.5939   -4.0412   -0.9041 H   0  0  0  0  0  0  0  0  0  0  0  0
   -3.4653   -3.3500    1.3496 H   0  0  0  0  0  0  0  0  0  0  0  0
   -3.0431   -4.9677    0.8414 H   0  0  0  0  0  0  0  0  0  0  0  0
   -1.8248   -3.9232    1.5327 H   0  0  0  0  0  0  0  0  0  0  0  0
   -2.7380    0.3430    0.4730 H   0  0  0  0  0  0  0  0  0  0  0  0
   -3.9563   -0.7014   -0.2183 H   0  0  0  0  0  0  0  0  0  0  0  0
   -2.5468   -1.1566    2.4018 H   0  0  0  0  0  0  0  0  0  0  0  0
   -4.1872   -0.5834    2.2186 H   0  0  0  0  0  0  0  0  0  0  0  0
   -3.7651   -2.2011    1.7105 H   0  0  0  0  0  0  0  0  0  0  0  0
    1.2952   -3.5513   -2.8564 H   0  0  0  0  0  0  0  0  0  0  0  0
   -0.2588   -3.1022   -2.1958 H   0  0  0  0  0  0  0  0  0  0  0  0
    2.0792   -1.2461   -2.5793 H   0  0  0  0  0  0  0  0  0  0  0  0
    0.6526   -1.3020   -3.5866 H   0  0  0  0  0  0  0  0  0  0  0  0
    0.5252   -0.7970   -1.9187 H   0  0  0  0  0  0  0  0  0  0  0  0
    3.7352   -3.4557   -1.1337 H   0  0  0  0  0  0  0  0  0  0  0  0
    3.3989   -1.7845   -0.7502 H   0  0  0  0  0  0  0  0  0  0  0  0
    3.5983   -4.0292    1.2449 H   0  0  0  0  0  0  0  0  0  0  0  0
    4.8160   -2.8071    0.9678 H   0  0  0  0  0  0  0  0  0  0  0  0
    3.2620   -2.3580    1.6284 H   0  0  0  0  0  0  0  0  0  0  0  0
    0.0985   -5.0966    0.0007 H   0  0  0  0  0  0  0  0  0  0  0  0
    1.6525   -5.5458   -0.6599 H   0  0  0  0  0  0  0  0  0  0  0  0
    1.1793   -4.4480    2.1023 H   0  0  0  0  0  0  0  0  0  0  0  0
    1.5156   -6.1192    1.7188 H   0  0  0  0  0  0  0  0  0  0  0  0
    2.7333   -4.8972    1.4417 H   0  0  0  0  0  0  0  0  0  0  0  0
  1  2  1  0  0  0  0
  1 21  1  0  0  0  0
  1 22  1  0  0  0  0
  1 23  1  0  0  0  0
  2  3  1  0  0  0  0
  2  4  1  0  0  0  0
  2  5  1  0  0  0  0
  2  7  1  0  0  0  0
  2 14  1  0  0  0  0
  5  6  3  0  0  0  0
  7  8  1  0  0  0  0
  7 10  1  0  0  0  0
  7 12  1  0  0  0  0
  8  9  1  0  0  0  0
  8 24  1  0  0  0  0
  8 25  1  0  0  0  0
  9 26  1  0  0  0  0
  9 27  1  0  0  0  0
  9 28  1  0  0  0  0
 10 11  1  0  0  0  0
 10 29  1  0  0  0  0
 10 30  1  0  0  0  0
 11 31  1  0  0  0  0
 11 32  1  0  0  0  0
 11 33  1  0  0  0  0
 12 13  1  0  0  0  0
 12 34  1  0  0  0  0
 12 35  1  0  0  0  0
 13 36  1  0  0  0  0
 13 37  1  0  0  0  0
 13 38  1  0  0  0  0
 14 15  1  0  0  0  0
 14 17  1  0  0  0  0
 14 19  1  0  0  0  0
 15 16  1  0  0  0  0
 15 39  1  0  0  0  0
 15 40  1  0  0  0  0
 16 41  1  0  0  0  0
 16 42  1  0  0  0  0
 16 43  1  0  0  0  0
 17 18  1  0  0  0  0
 17 44  1  0  0  0  0
 17 45  1  0  0  0  0
 18 46  1  0  0  0  0
 18 47  1  0  0  0  0
 18 48  1  0  0  0  0
 19 20  1  0  0  0  0
 19 49  1  0  0  0  0
 19 50  1  0  0  0  0
 20 51  1  0  0  0  0
 20 52  1  0  0  0  0
 20 53  1  0  0  0  0
M  END
$$$$
