
  --CCDC--092525    3D                              

 24 29  0  0  0  0  0  0  0  0999 V2000
    1.5736   -1.4239   -0.0964 H      0
    1.4025   -0.3955   -0.4195 C      0
    2.1446    0.2419    0.0587 H      0
    1.5547   -0.3516   -1.4963 H      0
   -0.0237    0.0440   -0.0644 C      0
   -1.1919    0.4417   -0.9189 C      0
   -0.8766    0.4760   -2.0160 H      0
   -2.4584    0.1259   -0.1470 C      0
   -3.3236    0.0255   -0.8890 H      0
   -2.0260   -0.6172    1.1592 C      0
   -2.5230   -1.6344    1.2584 H      0
   -0.4902   -0.6710    1.1636 C      0
   -0.0645   -1.7237    1.2389 H      0
   -1.3185   -1.7067   -0.5210 Mn     0
   -2.9252   -3.3255   -0.3135 C      0
   -3.7261   -4.1288   -0.1975 O      0
   -0.4049   -3.6962    0.1516 C      0
    0.0499   -4.6865    0.4864 O      0
   -1.7034   -2.5698   -2.1921 H      0
   -0.2686   -2.9407   -2.7131 Si     0
    0.5215   -1.3509   -3.7701 Cl     0
    1.6829   -3.1670   -2.0830 Cl     0
   -0.2627   -4.9938   -2.4823 Cl     0
   -0.5161   -3.3753   -4.1348 H      0
  1  2  1
  2  3  1
  2  4  1
  2  5  1
  5  6  4
  6  7  1
  6  8  4
  8  9  1
  8 10  4
 10 11  1
 10 12  4
  5 12  4
 12 13  1
 12 14  1
  8 14  1
 10 14  1
  6 14  1
  5 14  1
 14 15  1
 15 16  3
 14 17  1
 17 18  3
 14 19  1
 19 20  1
 14 20  1
 20 21  1
 20 22  1
 20 23  1
 20 24  1
M  END
$$$$
