
     RDKit          3D

  0  0  0  0  0  0  0  0  0  0999 V3000
M  V30 BEGIN CTAB
M  V30 COUNTS 79 83 0 0 0
M  V30 BEGIN ATOM
M  V30 1 Cl 0.337535 -0.740371 -1.863422 0
M  V30 2 Ru 1.273583 -0.428410 0.461004 0 VAL=6
M  V30 3 C 2.186776 -2.131717 0.215110 0
M  V30 4 C 3.541126 -2.091642 -0.393776 0
M  V30 5 C 4.073198 -3.027638 -1.297789 0
M  V30 6 C 5.318742 -2.999288 -1.882728 0
M  V30 7 C 6.121245 -1.935042 -1.537831 0
M  V30 8 C 5.682043 -0.970883 -0.659426 0
M  V30 9 C 4.413590 -1.066848 -0.110086 0
M  V30 10 C 3.992921 -0.033836 0.813051 0
M  V30 11 C 5.033972 0.999840 1.052242 0
M  V30 12 N 2.760947 0.634168 0.374196 0
M  V30 13 C 3.167821 1.102567 -0.908558 0
M  V30 14 C 2.629531 1.885960 1.149372 0
M  V30 15 Cl 1.493945 -0.910559 2.901513 0
M  V30 16 C -0.571743 -0.058807 0.354488 0 RAD=2 VAL=3
M  V30 17 N -1.037643 1.227632 0.717525 0
M  V30 18 C -0.778332 0.925572 2.113915 0
M  V30 19 C -1.390317 -0.433067 2.310095 0
M  V30 20 N -1.473485 -1.037207 0.996235 0
M  V30 21 C -2.156706 -2.094932 0.348010 0
M  V30 22 C -1.691558 -3.408920 0.461680 0
M  V30 23 C -0.548422 -3.845696 1.278721 0
M  V30 24 C -2.265937 -4.495435 -0.166227 0
M  V30 25 C -3.368171 -4.314594 -0.962412 0
M  V30 26 C -4.044342 -5.436595 -1.670985 0
M  V30 27 C -3.883674 -3.052073 -1.123380 0
M  V30 28 C -3.260418 -2.017395 -0.469445 0
M  V30 29 C -3.862653 -0.695385 -0.747908 0
M  V30 30 C -1.529424 2.451430 0.140373 0
M  V30 31 C -0.958690 3.474421 -0.568982 0
M  V30 32 C 0.414024 3.218216 -1.064708 0
M  V30 33 C -1.503057 4.670065 -0.950023 0
M  V30 34 C -2.806512 4.900384 -0.584228 0
M  V30 35 C -3.379406 6.198108 -1.006928 0
M  V30 36 C -3.462591 3.925940 0.129733 0
M  V30 37 C -2.870913 2.702396 0.509157 0
M  V30 38 C -3.882500 1.975057 1.272965 0
M  V30 39 H 2.088370 -3.236637 0.344465 0
M  V30 40 H 3.395547 -3.854260 -1.539484 0
M  V30 41 H 5.563979 -3.804753 -2.557555 0
M  V30 42 H 7.097463 -1.923116 -2.003324 0
M  V30 43 H 6.404765 -0.205641 -0.484078 0
M  V30 44 H 3.730627 -0.556956 1.785641 0
M  V30 45 H 5.279250 1.522606 0.127122 0
M  V30 46 H 5.958486 0.426576 1.384727 0
M  V30 47 H 4.782075 1.688100 1.870918 0
M  V30 48 H 4.123722 0.771368 -1.302534 0
M  V30 49 H 2.403334 0.698155 -1.646888 0
M  V30 50 H 3.119523 2.197502 -1.064874 0
M  V30 51 H 3.326967 2.644863 0.810968 0
M  V30 52 H 2.842197 1.530066 2.212496 0
M  V30 53 H 1.627557 2.256186 1.185560 0
M  V30 54 H 0.201305 1.101799 2.489364 0
M  V30 55 H -1.423922 1.617108 2.768242 0
M  V30 56 H -2.415204 -0.384598 2.724711 0
M  V30 57 H -0.868311 -1.081139 3.042822 0
M  V30 58 H -0.034772 -3.105532 1.856142 0
M  V30 59 H 0.124278 -4.528497 0.680688 0
M  V30 60 H -0.987829 -4.564523 2.039852 0
M  V30 61 H -1.945093 -5.525391 -0.110899 0
M  V30 62 H -4.596368 -5.073352 -2.561276 0
M  V30 63 H -3.277706 -6.185969 -1.928249 0
M  V30 64 H -4.751353 -5.882155 -0.915878 0
M  V30 65 H -4.752058 -2.914573 -1.751224 0
M  V30 66 H -4.419547 -0.675128 -1.735741 0
M  V30 67 H -4.652863 -0.513469 0.000844 0
M  V30 68 H -3.131994 0.105790 -0.726622 0
M  V30 69 H 0.608450 2.166520 -1.239207 0
M  V30 70 H 1.134164 3.799730 -0.488993 0
M  V30 71 H 0.471235 3.674106 -2.109263 0
M  V30 72 H -0.920932 5.378180 -1.506299 0
M  V30 73 H -4.475419 6.150458 -0.945513 0
M  V30 74 H -3.032403 6.481419 -2.036041 0
M  V30 75 H -3.012196 7.018987 -0.356314 0
M  V30 76 H -4.484042 4.257671 0.340472 0
M  V30 77 H -3.702700 0.963916 1.562697 0
M  V30 78 H -4.793096 1.891484 0.588396 0
M  V30 79 H -4.319987 2.607684 2.108446 0
M  V30 END ATOM
M  V30 BEGIN BOND
M  V30 1 1 1 2
M  V30 2 2 2 3
M  V30 3 1 3 4
M  V30 4 2 4 5
M  V30 5 1 5 6
M  V30 6 2 6 7
M  V30 7 1 7 8
M  V30 8 2 8 9
M  V30 9 1 9 10
M  V30 10 1 10 11
M  V30 11 1 10 12
M  V30 12 1 12 13
M  V30 13 1 12 14
M  V30 14 1 2 15
M  V30 15 1 2 16
M  V30 16 1 16 17
M  V30 17 1 17 18
M  V30 18 1 18 19
M  V30 19 1 19 20
M  V30 20 1 20 21
M  V30 21 2 21 22
M  V30 22 1 22 23
M  V30 23 1 22 24
M  V30 24 2 24 25
M  V30 25 1 25 26
M  V30 26 1 25 27
M  V30 27 2 27 28
M  V30 28 1 28 29
M  V30 29 1 17 30
M  V30 30 2 30 31
M  V30 31 1 31 32
M  V30 32 1 31 33
M  V30 33 2 33 34
M  V30 34 1 34 35
M  V30 35 1 34 36
M  V30 36 2 36 37
M  V30 37 1 37 38
M  V30 38 9 12 2
M  V30 39 1 20 16
M  V30 40 1 28 21
M  V30 41 1 37 30
M  V30 42 1 9 4
M  V30 43 1 3 39
M  V30 44 1 5 40
M  V30 45 1 6 41
M  V30 46 1 7 42
M  V30 47 1 8 43
M  V30 48 1 10 44
M  V30 49 1 11 45
M  V30 50 1 11 46
M  V30 51 1 11 47
M  V30 52 1 13 48
M  V30 53 1 13 49
M  V30 54 1 13 50
M  V30 55 1 14 51
M  V30 56 1 14 52
M  V30 57 1 14 53
M  V30 58 1 18 54
M  V30 59 1 18 55
M  V30 60 1 19 56
M  V30 61 1 19 57
M  V30 62 1 23 58
M  V30 63 1 23 59
M  V30 64 1 23 60
M  V30 65 1 24 61
M  V30 66 1 26 62
M  V30 67 1 26 63
M  V30 68 1 26 64
M  V30 69 1 27 65
M  V30 70 1 29 66
M  V30 71 1 29 67
M  V30 72 1 29 68
M  V30 73 1 32 69
M  V30 74 1 32 70
M  V30 75 1 32 71
M  V30 76 1 33 72
M  V30 77 1 35 73
M  V30 78 1 35 74
M  V30 79 1 35 75
M  V30 80 1 36 76
M  V30 81 1 38 77
M  V30 82 1 38 78
M  V30 83 1 38 79
M  V30 END BOND
M  V30 END CTAB
M  END
