
  --CCDC--092525    3D                              

 44 43  0  0  0  0  0  0  0  0999 V2000
    0.1575    0.3600   -0.0993 H      0
    0.5015    1.3911   -0.0902 C      0
    0.3501    1.7815   -1.0943 H      0
    1.5747    1.3785    0.0854 H      0
   -0.3660    2.4605    1.1127 P      0
   -1.9931    2.1877    0.3212 C      0
   -2.2898    1.1453    0.2305 H      0
   -1.9504    2.5740   -0.6950 H      0
   -2.8036    2.7189    0.8129 H      0
    0.9026    3.6694    0.5793 C      0
    1.2200    3.4248   -0.4323 H      0
    0.5069    4.6825    0.5279 H      0
    1.7960    3.6937    1.1973 H      0
   -0.4069    2.0334    2.7339 O      0
   -1.6164    2.5973    2.8336 N      0
   -2.0370    3.7944    2.7514 N      3
   -2.5530    4.8132    2.7031 N      5
    0.2416    3.2511    3.1472 C      0
   -0.2144    3.7168    4.0073 H      0
    0.1591    4.0629    2.4490 H      0
    1.3034    3.1859    3.3677 H      0
    0.8861    1.4275    2.5915 C      0
    1.5864    1.9375    1.9557 H      0
    0.8385    0.4118    2.2084 H      0
    1.4534    1.3637    3.5069 H      0
   -1.0762    0.8157    2.4131 C      0
   -2.1463    0.9549    2.5530 H      0
   -0.8201   -0.0614    2.9705 H      0
   -0.9356    0.4446    1.4175 H      0
   -0.5110    1.5381    4.3233 P      0
    0.2158   -0.0746    4.8203 C      0
   -0.4548   -0.9203    4.6816 H      0
    0.4159   -0.0486    5.8890 H      0
    1.1605   -0.3174    4.3406 H      0
   -1.9026    2.3769    5.1398 C      0
   -2.8682    2.0743    4.7363 H      0
   -1.9109    2.1110    6.1948 H      0
   -1.8216    3.4600    5.0902 H      0
    0.5951    2.2687    5.5777 C      0
    0.4650    1.7619    6.5314 H      0
    0.3954    3.3222    5.7584 H      0
    1.6393    2.1660    5.2909 H      0
   -0.9113    3.7263    0.8682 H      0
   -1.6064    0.6811    4.4967 H      0
  1  2  1
  2  3  1
  2  4  1
  2  5  1
  5  6  1
  6  7  1
  6  8  1
  6  9  1
  5 10  1
 10 11  1
 10 12  1
 10 13  1
  5 14  1
 14 15  1
 15 16  2
 16 17  2
 14 18  1
 18 19  1
 18 20  1
 18 21  1
 14 22  1
 22 23  1
 22 24  1
 22 25  1
 14 26  1
 26 27  1
 26 28  1
 26 29  1
 14 30  1
 30 31  1
 31 32  1
 31 33  1
 31 34  1
 30 35  1
 35 36  1
 35 37  1
 35 38  1
 30 39  1
 39 40  1
 39 41  1
 39 42  1
  5 43  1
 30 44  1
M  CHG  2  16   1  17  -1
M  END
$$$$
