
     RDKit          3D

  0  0  0  0  0  0  0  0  0  0999 V3000
M  V30 BEGIN CTAB
M  V30 COUNTS 114 121 0 0 0
M  V30 BEGIN ATOM
M  V30 1 C -5.387919 1.658387 -0.323911 0
M  V30 2 C -4.978322 1.008524 0.824112 0
M  V30 3 C -3.700109 0.428801 1.028849 0
M  V30 4 C -3.724765 0.047609 2.389474 0
M  V30 5 C -5.121544 -0.575043 2.702290 0
M  V30 6 C -3.836381 1.301377 3.338726 0
M  V30 7 C -2.826449 0.564582 -0.077172 0
M  V30 8 N -1.399568 0.207702 0.157871 0
M  V30 9 C -0.470395 1.337549 0.060523 0
M  V30 10 C 0.747541 1.115135 -0.213522 0
M  V30 11 C 1.376795 2.477530 -0.237602 0
M  V30 12 C 2.644917 3.017280 -0.476180 0
M  V30 13 C 2.943516 4.355379 -0.431926 0
M  V30 14 C 1.952034 5.289193 -0.135201 0
M  V30 15 C 0.674164 4.846012 0.109914 0
M  V30 16 C -0.385372 5.673737 0.417997 0
M  V30 17 C -1.581473 5.026432 0.627488 0
M  V30 18 C -1.755002 3.681668 0.545421 0
M  V30 19 C -0.689915 2.823668 0.234199 0
M  V30 20 C 0.490849 3.498320 0.038262 0
M  V30 21 N 1.122486 -0.186526 -0.336008 0
M  V30 22 C 2.397705 -0.415623 -1.060050 0
M  V30 23 C 3.495203 -0.689022 -0.192238 0
M  V30 24 C 3.934985 -0.511965 1.186792 0
M  V30 25 C 4.965501 -1.430672 1.728666 0
M  V30 26 C 4.827210 0.811372 1.123436 0
M  V30 27 C 4.735130 -1.058915 -0.784818 0
M  V30 28 C 4.954238 -1.161842 -2.143894 0
M  V30 29 C 3.874788 -0.872412 -2.942221 0
M  V30 30 C 2.713643 -0.528022 -2.375736 0
M  V30 31 C 1.707779 -0.086014 -3.382402 0
M  V30 32 C 2.548952 0.517333 -4.559562 0
M  V30 33 C 1.112371 -1.289457 -4.075167 0
M  V30 34 Eu -0.319198 -1.395227 0.750481 0 VAL=7
M  V30 35 N -2.053362 -2.114942 1.076287 0
M  V30 36 C -3.097318 -2.614631 0.787975 0
M  V30 37 S -4.430752 -3.034511 0.089400 0
M  V30 38 O -0.640322 -0.881491 2.606915 0
M  V30 39 C -0.630294 0.520880 2.938771 0
M  V30 40 C -0.039306 -1.501270 3.757397 0
M  V30 41 C 1.274325 -0.927694 3.427523 0
M  V30 42 O 1.289123 -1.427874 2.048735 0
M  V30 43 C 1.793783 -2.658171 2.362910 0
M  V30 44 O -0.262181 -2.267635 -0.932609 0
M  V30 45 C -1.347629 -2.779548 -1.590702 0
M  V30 46 C 0.799015 -3.202938 -1.178881 0
M  V30 47 C 0.206124 -4.242638 -0.355273 0
M  V30 48 O -0.020462 -3.346795 0.750146 0
M  V30 49 C -0.484885 -4.202596 1.673377 0
M  V30 50 C -3.071819 1.157820 -1.261557 0
M  V30 51 C -2.563556 1.272335 -2.558073 0
M  V30 52 C -2.612976 2.591912 -3.302794 0
M  V30 53 C -1.619237 0.258532 -3.055974 0
M  V30 54 C -4.382388 1.680601 -1.290332 0
M  V30 55 H -6.358247 2.099780 -0.473668 0
M  V30 56 H -5.842324 1.050791 1.520993 0
M  V30 57 H -3.123123 -0.612894 2.921469 0
M  V30 58 H -5.605448 -0.899783 1.727719 0
M  V30 59 H -5.743329 0.132808 3.250918 0
M  V30 60 H -5.060482 -1.481747 3.298672 0
M  V30 61 H -3.469320 0.988783 4.315947 0
M  V30 62 H -4.887777 1.662446 3.352284 0
M  V30 63 H -3.175044 2.059130 2.901224 0
M  V30 64 H 3.340155 2.204437 -0.731251 0
M  V30 65 H 3.965047 4.656004 -0.634181 0
M  V30 66 H 2.160736 6.348207 -0.090806 0
M  V30 67 H -0.227647 6.736718 0.477080 0
M  V30 68 H -2.462164 5.603446 0.880453 0
M  V30 69 H -2.716933 3.180283 0.723281 0
M  V30 70 H 3.246951 -0.113451 1.883428 0
M  V30 71 H 4.902460 -1.378650 2.843459 0
M  V30 72 H 4.928718 -2.471636 1.353934 0
M  V30 73 H 6.004831 -1.127190 1.544020 0
M  V30 74 H 5.621298 0.755022 1.893735 0
M  V30 75 H 5.189740 0.959943 0.113896 0
M  V30 76 H 4.158194 1.620046 1.415022 0
M  V30 77 H 5.707977 -1.328705 -0.330857 0
M  V30 78 H 5.861724 -1.450801 -2.651487 0
M  V30 79 H 4.028525 -0.954708 -4.010410 0
M  V30 80 H 1.031427 0.634593 -3.025299 0
M  V30 81 H 1.850632 1.265314 -5.021143 0
M  V30 82 H 2.779319 -0.245077 -5.306084 0
M  V30 83 H 3.474222 0.965623 -4.184186 0
M  V30 84 H 1.006518 -1.090073 -5.191026 0
M  V30 85 H 0.187847 -1.659010 -3.672570 0
M  V30 86 H 1.834928 -2.157428 -4.045208 0
M  V30 87 H 0.359794 0.880122 3.059906 0
M  V30 88 H -1.234414 1.103237 2.242430 0
M  V30 89 H -1.111068 0.516579 3.933594 0
M  V30 90 H -0.218609 -2.505034 3.934922 0
M  V30 91 H -0.595062 -0.938657 4.551526 0
M  V30 92 H 2.075009 -1.503056 3.977854 0
M  V30 93 H 1.420604 0.073522 3.380869 0
M  V30 94 H 2.002565 -3.249802 1.474586 0
M  V30 95 H 1.208922 -3.282672 3.066194 0
M  V30 96 H 2.774540 -2.452314 2.867593 0
M  V30 97 H -1.151546 -2.951724 -2.621613 0
M  V30 98 H -2.211692 -2.011924 -1.566096 0
M  V30 99 H -1.774935 -3.614817 -1.012025 0
M  V30 100 H 1.753812 -2.874351 -0.802244 0
M  V30 101 H 0.814829 -3.370421 -2.245270 0
M  V30 102 H 1.056051 -4.846087 0.073806 0
M  V30 103 H -0.613537 -4.847498 -0.642883 0
M  V30 104 H 0.173328 -4.991835 1.992568 0
M  V30 105 H -1.131195 -3.715048 2.406485 0
M  V30 106 H -1.313265 -4.806108 1.103096 0
M  V30 107 H -3.531372 0.816447 -3.253089 0
M  V30 108 H -1.566072 3.057693 -3.249820 0
M  V30 109 H -2.767696 2.472622 -4.382935 0
M  V30 110 H -3.353429 3.265728 -2.891412 0
M  V30 111 H -1.033589 0.607415 -3.953699 0
M  V30 112 H -2.114561 -0.680522 -3.508563 0
M  V30 113 H -0.898682 -0.082120 -2.315114 0
M  V30 114 H -4.777421 2.212207 -2.180155 0
M  V30 END ATOM
M  V30 BEGIN BOND
M  V30 1 2 1 2
M  V30 2 1 2 3
M  V30 3 1 3 4
M  V30 4 1 4 5
M  V30 5 1 4 6
M  V30 6 2 3 7
M  V30 7 1 7 8
M  V30 8 1 8 9
M  V30 9 2 9 10
M  V30 10 1 10 11
M  V30 11 2 11 12
M  V30 12 1 12 13
M  V30 13 2 13 14
M  V30 14 1 14 15
M  V30 15 2 15 16
M  V30 16 1 16 17
M  V30 17 2 17 18
M  V30 18 1 18 19
M  V30 19 2 19 20
M  V30 20 1 10 21
M  V30 21 1 21 22
M  V30 22 2 22 23
M  V30 23 1 23 24
M  V30 24 1 24 25
M  V30 25 1 24 26
M  V30 26 1 23 27
M  V30 27 2 27 28
M  V30 28 1 28 29
M  V30 29 2 29 30
M  V30 30 1 30 31
M  V30 31 1 31 32
M  V30 32 1 31 33
M  V30 33 1 21 34
M  V30 34 1 34 35
M  V30 35 2 35 36
M  V30 36 2 36 37
M  V30 37 9 38 34
M  V30 38 1 38 39
M  V30 39 1 38 40
M  V30 40 1 40 41
M  V30 41 1 41 42
M  V30 42 1 42 43
M  V30 43 9 44 34
M  V30 44 1 44 45
M  V30 45 1 44 46
M  V30 46 1 46 47
M  V30 47 1 47 48
M  V30 48 1 48 49
M  V30 49 1 7 50
M  V30 50 1 50 51
M  V30 51 1 51 52
M  V30 52 1 51 53
M  V30 53 2 50 54
M  V30 54 1 54 1
M  V30 55 1 34 8
M  V30 56 1 19 9
M  V30 57 1 30 22
M  V30 58 9 42 34
M  V30 59 1 20 11
M  V30 60 9 48 34
M  V30 61 1 20 15
M  V30 62 1 1 55
M  V30 63 1 2 56
M  V30 64 1 4 57
M  V30 65 1 5 58
M  V30 66 1 5 59
M  V30 67 1 5 60
M  V30 68 1 6 61
M  V30 69 1 6 62
M  V30 70 1 6 63
M  V30 71 1 12 64
M  V30 72 1 13 65
M  V30 73 1 14 66
M  V30 74 1 16 67
M  V30 75 1 17 68
M  V30 76 1 18 69
M  V30 77 1 24 70
M  V30 78 1 25 71
M  V30 79 1 25 72
M  V30 80 1 25 73
M  V30 81 1 26 74
M  V30 82 1 26 75
M  V30 83 1 26 76
M  V30 84 1 27 77
M  V30 85 1 28 78
M  V30 86 1 29 79
M  V30 87 1 31 80
M  V30 88 1 32 81
M  V30 89 1 32 82
M  V30 90 1 32 83
M  V30 91 1 33 84
M  V30 92 1 33 85
M  V30 93 1 33 86
M  V30 94 1 39 87
M  V30 95 1 39 88
M  V30 96 1 39 89
M  V30 97 1 40 90
M  V30 98 1 40 91
M  V30 99 1 41 92
M  V30 100 1 41 93
M  V30 101 1 43 94
M  V30 102 1 43 95
M  V30 103 1 43 96
M  V30 104 1 45 97
M  V30 105 1 45 98
M  V30 106 1 45 99
M  V30 107 1 46 100
M  V30 108 1 46 101
M  V30 109 1 47 102
M  V30 110 1 47 103
M  V30 111 1 49 104
M  V30 112 1 49 105
M  V30 113 1 49 106
M  V30 114 1 51 107
M  V30 115 1 52 108
M  V30 116 1 52 109
M  V30 117 1 52 110
M  V30 118 1 53 111
M  V30 119 1 53 112
M  V30 120 1 53 113
M  V30 121 1 54 114
M  V30 END BOND
M  V30 END CTAB
M  END
