
 OpenBabel09252514513D

 35 38  0  0  1  0  0  0  0  0999 V2000
    2.8462    0.2392    0.9967 H   0  0  0  0  0  0  0  0  0  0  0  0
    2.8157    0.0038   -0.0616 C   0  0  0  0  0  3  0  0  0  0  0  0
    2.2341   -1.2607   -0.4963 C   0  0  0  0  0  3  0  0  0  0  0  0
    2.1158   -2.0390    0.2452 H   0  0  0  0  0  0  0  0  0  0  0  0
    1.6251   -1.3525   -1.8363 C   0  0  0  0  0  3  0  0  0  0  0  0
    0.2588   -1.6610   -1.8860 N   0  0  0  0  0  0  0  0  0  0  0  0
   -0.6397   -0.5748   -2.1966 C   0  0  0  0  0  0  0  0  0  0  0  0
   -0.5473    0.2623   -3.0790 O   0  0  0  0  0  0  0  0  0  0  0  0
   -1.6309   -0.4782   -1.0776 C   0  0  2  0  0  0  0  0  0  0  0  0
   -0.7358   -0.6370   -0.4400 H   0  0  0  0  0  0  0  0  0  0  0  0
   -2.0262    0.3555    0.1227 C   0  0  0  0  0  0  0  0  0  0  0  0
   -2.7581    1.1326   -0.1235 H   0  0  0  0  0  0  0  0  0  0  0  0
   -1.1818    0.8488    0.6274 H   0  0  0  0  0  0  0  0  0  0  0  0
   -2.6164   -0.8401    0.9448 C   0  0  2  0  0  0  0  0  0  0  0  0
   -3.2153   -0.2499    2.6540 Br  0  0  0  0  0  0  0  0  0  0  0  0
   -1.6004   -1.9388    1.0280 O   0  0  0  0  0  0  0  0  0  0  0  0
   -1.6289   -2.6607   -0.2584 C   0  0  2  0  0  0  0  0  0  0  0  0
   -2.2033   -4.3185    0.0444 Cl  0  0  0  0  0  0  0  0  0  0  0  0
   -0.2602   -2.8178   -1.0557 C   0  0  0  0  0  0  0  0  0  0  0  0
   -0.4077   -3.5928   -1.8222 H   0  0  0  0  0  0  0  0  0  0  0  0
    0.5120   -3.1955   -0.3817 H   0  0  0  0  0  0  0  0  0  0  0  0
   -2.5537   -1.7455   -1.0332 C   0  0  1  0  0  0  0  0  0  0  0  0
   -2.8833   -2.1099   -2.0092 H   0  0  0  0  0  0  0  0  0  0  0  0
   -3.6503   -1.2991   -0.0691 C   0  0  1  0  0  0  0  0  0  0  0  0
   -4.1934   -0.4427   -0.4932 H   0  0  0  0  0  0  0  0  0  0  0  0
   -5.1571   -2.6227    0.4876 I   0  0  0  0  0  0  0  0  0  0  0  0
    2.1759   -0.4544   -2.8559 C   0  0  0  0  0  3  0  0  0  0  0  0
    1.9396   -0.6379   -3.8989 H   0  0  0  0  0  0  0  0  0  0  0  0
    2.8055    0.8062   -2.4572 C   0  0  0  0  0  3  0  0  0  0  0  0
    3.0394    1.8940   -3.4537 C   0  0  0  0  0  0  0  0  0  0  0  0
    4.3614    2.1924   -3.5570 F   0  0  0  0  0  0  0  0  0  0  0  0
    2.6165    1.5779   -4.7044 F   0  0  0  0  0  0  0  0  0  0  0  0
    2.4104    3.0463   -3.1032 F   0  0  0  0  0  0  0  0  0  0  0  0
    3.0869    1.0458   -1.0394 C   0  0  0  0  0  3  0  0  0  0  0  0
    3.2834    2.0566   -0.6954 H   0  0  0  0  0  0  0  0  0  0  0  0
  1  2  1  0  0  0  0
  2  3  1  0  0  0  0
  2 34  1  0  0  0  0
  3  4  1  0  0  0  0
  3  5  1  0  0  0  0
  5 27  1  0  0  0  0
  5  6  1  0  0  0  0
  6  7  1  0  0  0  0
  6 19  1  0  0  0  0
  7  9  1  0  0  0  0
  7  8  2  0  0  0  0
  9 11  1  0  0  0  0
  9 22  1  0  0  0  0
  9 10  1  6  0  0  0
 11 14  1  0  0  0  0
 11 12  1  0  0  0  0
 11 13  1  0  0  0  0
 14 16  1  0  0  0  0
 14 24  1  0  0  0  0
 14 15  1  1  0  0  0
 16 17  1  0  0  0  0
 17 19  1  0  0  0  0
 17 22  1  0  0  0  0
 17 18  1  1  0  0  0
 19 20  1  0  0  0  0
 19 21  1  0  0  0  0
 22 24  1  0  0  0  0
 22 23  1  6  0  0  0
 24 26  1  0  0  0  0
 24 25  1  6  0  0  0
 27 28  1  0  0  0  0
 27 29  1  0  0  0  0
 29 30  1  0  0  0  0
 29 34  1  0  0  0  0
 30 31  1  0  0  0  0
 30 32  1  0  0  0  0
 30 33  1  0  0  0  0
 34 35  1  0  0  0  0
M  END
$$$$
