
 OpenBabel09252519533D

 76 82  0  0  1  0  0  0  0  0999 V2000
    1.0534   -0.0724    0.0436 H   0  0  0  0  0  0  0  0  0  0  0  0
    2.1234   -0.0724    0.0436 C   0  0  0  0  0  3  0  0  0  0  0  0
    2.6357   -1.4554   -0.3656 C   0  0  0  0  0  3  0  0  0  0  0  0
    2.2465   -2.1928    0.3051 H   0  0  0  0  0  0  0  0  0  0  0  0
    2.2054   -1.7475   -1.6968 C   0  0  0  0  0  3  0  0  0  0  0  0
    2.5457   -2.7293   -1.9521 H   0  0  0  0  0  0  0  0  0  0  0  0
    2.6928   -0.8335   -2.6808 C   0  0  0  0  0  3  0  0  0  0  0  0
    4.5228   -0.8378   -2.6642 P   0  0  0  0  0  0  0  0  0  0  0  0
    4.5137   -2.5818   -2.1100 C   0  0  0  0  0  3  0  0  0  0  0  0
    3.7686   -2.6751   -0.7764 C   0  0  0  0  0  3  0  0  0  0  0  0
    4.2372   -2.0329   -0.0603 H   0  0  0  0  0  0  0  0  0  0  0  0
    2.4100   -2.2717   -0.9612 C   0  0  0  0  0  3  0  0  0  0  0  0
    1.9153   -2.3133   -0.0134 H   0  0  0  0  0  0  0  0  0  0  0  0
    1.6812   -3.0834   -1.8838 C   0  0  0  0  0  3  0  0  0  0  0  0
    1.6816   -4.0980   -1.5440 H   0  0  0  0  0  0  0  0  0  0  0  0
    2.3419   -3.0067   -3.2623 C   0  0  0  0  0  3  0  0  0  0  0  0
    1.8226   -3.6469   -3.9444 H   0  0  0  0  0  0  0  0  0  0  0  0
    3.8012   -3.4577   -3.1458 C   0  0  0  0  0  3  0  0  0  0  0  0
    3.8366   -4.4810   -2.8353 H   0  0  0  0  0  0  0  0  0  0  0  0
    4.5147    0.5143   -1.4310 C   0  0  0  0  0  3  0  0  0  0  0  0
    3.7959    1.7352   -2.0097 C   0  0  0  0  0  3  0  0  0  0  0  0
    4.2800    2.0387   -2.9144 H   0  0  0  0  0  0  0  0  0  0  0  0
    2.4349    1.3988   -2.2873 C   0  0  0  0  0  3  0  0  0  0  0  0
    1.9588    2.2539   -2.7198 H   0  0  0  0  0  0  0  0  0  0  0  0
    1.6861    1.0021   -1.1370 C   0  0  0  0  0  3  0  0  0  0  0  0
    1.6907    1.7943   -0.4177 H   0  0  0  0  0  0  0  0  0  0  0  0
    2.3196   -0.2485   -0.5229 C   0  0  0  0  0  3  0  0  0  0  0  0
    1.7854   -0.5224    0.3628 H   0  0  0  0  0  0  0  0  0  0  0  0
    3.7799    0.0501   -0.1692 C   0  0  0  0  0  3  0  0  0  0  0  0
    3.8354    1.1444    0.8843 C   0  0  0  0  0  0  0  0  0  0  0  0
    4.9974    1.5618    1.3386 N   0  0  0  0  0  0  0  0  0  0  0  0
    5.0511    2.6201    2.3574 C   0  0  0  0  0  3  0  0  0  0  0  0
    6.4775    3.1716    2.4159 C   0  0  0  0  0  3  0  0  0  0  0  0
    7.1595    2.3752    2.6295 H   0  0  0  0  0  0  0  0  0  0  0  0
    6.8119    3.7607    1.1574 C   0  0  0  0  0  3  0  0  0  0  0  0
    7.8216    4.1111    1.2080 H   0  0  0  0  0  0  0  0  0  0  0  0
    5.9744    4.8570    0.7859 C   0  0  0  0  0  3  0  0  0  0  0  0
    6.0327    5.6199    1.5340 H   0  0  0  0  0  0  0  0  0  0  0  0
    4.5276    4.3737    0.6615 C   0  0  0  0  0  3  0  0  0  0  0  0
    3.8925    5.2017    0.4248 H   0  0  0  0  0  0  0  0  0  0  0  0
    4.0884    3.7549    1.9923 C   0  0  1  0  0  0  0  0  0  0  0  0
    4.1071    4.5015    2.7585 H   0  0  0  0  0  0  0  0  0  0  0  0
    4.5445   -0.3386   -4.9400 Co  0  0  0  0  0  0  0  0  0  0  0  0
    6.8744   -0.3440   -4.9189 P   0  0  0  0  0  0  0  0  0  0  0  0
    6.8574   -0.9179   -3.1813 C   0  0  0  0  0  0  0  0  0  0  0  0
    5.9808   -1.5067   -3.0088 H   0  0  0  0  0  0  0  0  0  0  0  0
    7.7280   -1.5108   -2.9930 H   0  0  0  0  0  0  0  0  0  0  0  0
    6.8534   -0.0719   -2.5263 H   0  0  0  0  0  0  0  0  0  0  0  0
    6.8840   -1.5619   -6.2848 C   0  0  0  0  0  0  0  0  0  0  0  0
    6.0161   -1.4208   -6.8946 H   0  0  0  0  0  0  0  0  0  0  0  0
    7.7634   -1.4248   -6.8787 H   0  0  0  0  0  0  0  0  0  0  0  0
    6.8780   -2.5522   -5.8796 H   0  0  0  0  0  0  0  0  0  0  0  0
    6.8819    1.4478   -5.2907 C   0  0  0  0  0  0  0  0  0  0  0  0
    7.3805    1.9734   -4.5032 H   0  0  0  0  0  0  0  0  0  0  0  0
    7.3951    1.6184   -6.2140 H   0  0  0  0  0  0  0  0  0  0  0  0
    5.8746    1.7994   -5.3723 H   0  0  0  0  0  0  0  0  0  0  0  0
    4.5438   -2.6145   -5.4392 P   0  0  0  0  0  0  0  0  0  0  0  0
    2.8574   -2.4618   -6.1332 C   0  0  0  0  0  0  0  0  0  0  0  0
    2.7249   -1.4791   -6.5354 H   0  0  0  0  0  0  0  0  0  0  0  0
    2.7243   -3.1858   -6.9097 H   0  0  0  0  0  0  0  0  0  0  0  0
    2.1370   -2.6310   -5.3604 H   0  0  0  0  0  0  0  0  0  0  0  0
    6.0024   -2.3782   -6.5188 C   0  0  0  0  0  0  0  0  0  0  0  0
    6.5916   -1.5650   -6.1493 H   0  0  0  0  0  0  0  0  0  0  0  0
    6.5910   -3.2718   -6.5237 H   0  0  0  0  0  0  0  0  0  0  0  0
    5.6775   -2.1597   -7.5146 H   0  0  0  0  0  0  0  0  0  0  0  0
    4.7716   -3.0036   -3.6656 C   0  0  0  0  0  0  0  0  0  0  0  0
    3.9489   -3.5951   -3.3217 H   0  0  0  0  0  0  0  0  0  0  0  0
    5.6826   -3.5491   -3.5343 H   0  0  0  0  0  0  0  0  0  0  0  0
    4.8163   -2.0940   -3.1038 H   0  0  0  0  0  0  0  0  0  0  0  0
    2.1829    0.5746   -2.3653 C   0  0  0  0  0  3  0  0  0  0  0  0
    2.5812    1.2675   -3.0768 H   0  0  0  0  0  0  0  0  0  0  0  0
    2.6362    0.9692   -0.9562 C   0  0  0  0  0  3  0  0  0  0  0  0
    3.7050    1.0050   -0.9203 H   0  0  0  0  0  0  0  0  0  0  0  0
    5.9027   -0.8409   -2.6517 H   0  0  0  0  0  0  0  0  0  0  0  0
    8.2544   -0.3472   -4.9064 H   0  0  0  0  0  0  0  0  0  0  0  0
    4.5434   -3.9625   -5.7348 H   0  0  0  0  0  0  0  0  0  0  0  0
  1  2  1  0  0  0  0
  2  3  1  0  0  0  0
  2 72  1  0  0  0  0
  3  4  1  0  0  0  0
  3  5  1  0  0  0  0
  5  6  1  0  0  0  0
  5  7  1  0  0  0  0
  7  8  1  0  0  0  0
  7 70  1  0  0  0  0
  8  9  1  0  0  0  0
  8 20  1  0  0  0  0
  8 43  1  0  0  0  0
  8 74  1  0  0  0  0
  9 10  1  0  0  0  0
  9 18  1  0  0  0  0
 10 11  1  0  0  0  0
 10 12  1  0  0  0  0
 12 13  1  0  0  0  0
 12 14  1  0  0  0  0
 14 15  1  0  0  0  0
 14 16  1  0  0  0  0
 16 17  1  0  0  0  0
 16 18  1  0  0  0  0
 18 19  1  0  0  0  0
 20 21  1  0  0  0  0
 20 29  1  0  0  0  0
 21 22  1  0  0  0  0
 21 23  1  0  0  0  0
 23 24  1  0  0  0  0
 23 25  1  0  0  0  0
 25 26  1  0  0  0  0
 25 27  1  0  0  0  0
 27 28  1  0  0  0  0
 27 29  1  0  0  0  0
 29 30  1  0  0  0  0
 30 31  2  0  0  0  0
 30 43  1  0  0  0  0
 31 32  1  0  0  0  0
 32 33  1  0  0  0  0
 32 41  1  0  0  0  0
 33 34  1  0  0  0  0
 33 35  1  0  0  0  0
 35 36  1  0  0  0  0
 35 37  1  0  0  0  0
 37 38  1  0  0  0  0
 37 39  1  0  0  0  0
 39 40  1  0  0  0  0
 39 41  1  0  0  0  0
 41 42  1  1  0  0  0
 41 43  1  0  0  0  0
 42 43  1  0  0  0  0
 43 44  1  0  0  0  0
 43 57  1  0  0  0  0
 44 45  1  0  0  0  0
 44 49  1  0  0  0  0
 44 53  1  0  0  0  0
 44 75  1  0  0  0  0
 45 46  1  0  0  0  0
 45 47  1  0  0  0  0
 45 48  1  0  0  0  0
 49 50  1  0  0  0  0
 49 51  1  0  0  0  0
 49 52  1  0  0  0  0
 53 54  1  0  0  0  0
 53 55  1  0  0  0  0
 53 56  1  0  0  0  0
 57 58  1  0  0  0  0
 57 62  1  0  0  0  0
 57 66  1  0  0  0  0
 57 76  1  0  0  0  0
 58 59  1  0  0  0  0
 58 60  1  0  0  0  0
 58 61  1  0  0  0  0
 62 63  1  0  0  0  0
 62 64  1  0  0  0  0
 62 65  1  0  0  0  0
 66 67  1  0  0  0  0
 66 68  1  0  0  0  0
 66 69  1  0  0  0  0
 70 71  1  0  0  0  0
 70 72  1  0  0  0  0
 72 73  1  0  0  0  0
M  END
$$$$
