
     RDKit          3D

 32 35  0  0  0  0  0  0  0  0999 V2000
    3.0672    2.1077   -0.0219 C   0  0  0  0  0  0  0  0  0  0  0  0
    4.1161    1.2412   -0.3131 C   0  0  0  0  0  0  0  0  0  0  0  0
    3.8635   -0.1194   -0.4625 C   0  0  0  0  0  0  0  0  0  0  0  0
    2.5558   -0.5998   -0.3418 C   0  0  0  0  0  0  0  0  0  0  0  0
    1.4716    0.2618   -0.1193 C   0  0  0  0  0  0  0  0  0  0  0  0
    1.7601    1.6193    0.0860 C   0  0  0  0  0  0  0  0  0  0  0  0
    0.0908   -0.3001   -0.0460 C   0  0  0  0  0  0  0  0  0  0  0  0
   -0.0322   -1.6479    0.0388 C   0  0  0  0  0  0  0  0  0  0  0  0
    1.1367   -2.5584   -0.1349 C   0  0  0  0  0  0  0  0  0  0  0  0
    1.0250   -3.7798   -0.0843 O   0  0  0  0  0  0  0  0  0  0  0  0
    2.3436   -1.9772   -0.3832 N   0  0  0  0  0  0  0  0  0  0  0  0
   -1.3465   -2.3358    0.3189 C   0  0  0  0  0  0  0  0  0  0  0  0
   -2.2653   -1.4472    1.1597 C   0  0  0  0  0  0  0  0  0  0  0  0
   -2.3487   -0.0786    0.5401 C   0  0  0  0  0  0  0  0  0  0  0  0
   -3.5545    0.6366    0.5622 C   0  0  0  0  0  0  0  0  0  0  0  0
   -3.6499    1.8652   -0.0850 C   0  0  0  0  0  0  0  0  0  0  0  0
   -2.5494    2.3734   -0.7677 C   0  0  0  0  0  0  0  0  0  0  0  0
   -1.3406    1.6707   -0.7735 C   0  0  0  0  0  0  0  0  0  0  0  0
   -1.2018    0.4599   -0.0794 C   0  0  0  0  0  0  0  0  0  0  0  0
    3.2633    3.1663    0.1319 H   0  0  0  0  0  0  0  0  0  0  0  0
    5.1311    1.6210   -0.3959 H   0  0  0  0  0  0  0  0  0  0  0  0
    4.6916   -0.7973   -0.6486 H   0  0  0  0  0  0  0  0  0  0  0  0
    0.9795    2.3239    0.3588 H   0  0  0  0  0  0  0  0  0  0  0  0
    3.1198   -2.6137   -0.4986 H   0  0  0  0  0  0  0  0  0  0  0  0
   -1.8237   -2.5910   -0.6359 H   0  0  0  0  0  0  0  0  0  0  0  0
   -1.1983   -3.2723    0.8689 H   0  0  0  0  0  0  0  0  0  0  0  0
   -3.2568   -1.9114    1.2165 H   0  0  0  0  0  0  0  0  0  0  0  0
   -1.8830   -1.3512    2.1835 H   0  0  0  0  0  0  0  0  0  0  0  0
   -4.4285    0.2278    1.0636 H   0  0  0  0  0  0  0  0  0  0  0  0
   -4.5885    2.4130   -0.0787 H   0  0  0  0  0  0  0  0  0  0  0  0
   -2.6309    3.3149   -1.3048 H   0  0  0  0  0  0  0  0  0  0  0  0
   -0.5171    2.0785   -1.3537 H   0  0  0  0  0  0  0  0  0  0  0  0
  1  2  2  0
  2  3  1  0
  3  4  2  0
  4  5  1  0
  5  6  2  0
  5  7  1  0
  7  8  2  0
  8  9  1  0
  9 10  2  0
  9 11  1  0
  8 12  1  0
 12 13  1  0
 13 14  1  0
 14 15  2  0
 15 16  1  0
 16 17  2  0
 17 18  1  0
 18 19  2  0
  6  1  1  0
 19  7  1  0
 11  4  1  0
 19 14  1  0
  1 20  1  0
  2 21  1  0
  3 22  1  0
  6 23  1  0
 11 24  1  0
 12 25  1  0
 12 26  1  0
 13 27  1  0
 13 28  1  0
 15 29  1  0
 16 30  1  0
 17 31  1  0
 18 32  1  0
M  END
