
 OpenBabel09252516033D

 49 54  0  0  1  0  0  0  0  0999 V2000
    0.9473    0.0567   -0.0633 H   0  0  0  0  0  0  0  0  0  0  0  0
    2.0173    0.0567   -0.0633 C   0  0  0  0  0  3  0  0  0  0  0  0
    2.5239   -0.7161   -1.2701 C   0  0  0  0  0  3  0  0  0  0  0  0
    3.5939   -0.7161   -1.2701 H   0  0  0  0  0  0  0  0  0  0  0  0
    2.0173   -2.1477   -1.2042 C   0  0  0  0  0  3  0  0  0  0  0  0
    2.9139   -3.0962   -2.0408 C   0  0  0  0  0  3  0  0  0  0  0  0
    3.3912   -2.4088   -3.3097 C   0  0  0  0  0  3  0  0  0  0  0  0
    2.5239   -0.6020    1.2094 C   0  0  0  0  0  3  0  0  0  0  0  0
    3.3130   -0.1539    1.7764 H   0  0  0  0  0  0  0  0  0  0  0  0
    4.2975   -1.2443   -2.9449 C   0  0  0  0  0  0  0  0  0  0  0  0
    5.0489   -0.6612   -3.4350 H   0  0  0  0  0  0  0  0  0  0  0  0
    4.4821   -0.2267   -2.6708 H   0  0  0  0  0  0  0  0  0  0  0  0
    2.6285   -5.9999   -0.7037 P   0  0  0  0  0  0  0  0  0  0  0  0
    3.4550   -6.0365    0.9287 C   0  0  0  0  0  0  0  0  0  0  0  0
    3.1408   -7.1645    1.5593 F   0  0  0  0  0  0  0  0  0  0  0  0
    4.7728   -5.9750    0.7601 F   0  0  0  0  0  0  0  0  0  0  0  0
    3.0517   -4.9965    1.6530 F   0  0  0  0  0  0  0  0  0  0  0  0
    1.4630   -7.0018   -1.6970 C   0  0  0  0  0  0  0  0  0  0  0  0
    1.0195   -6.2692   -2.7146 F   0  0  0  0  0  0  0  0  0  0  0  0
    2.0320   -8.1099   -2.1632 F   0  0  0  0  0  0  0  0  0  0  0  0
    0.4436   -7.3257   -0.9065 F   0  0  0  0  0  0  0  0  0  0  0  0
    1.9934   -4.2809   -2.3746 Ir  0  0  0  0  0  0  0  0  0  0  0  0
    2.2281   -5.4245   -1.4240 C   0  0  0  0  0  0  0  0  0  0  0  0
    1.7007   -5.8026   -0.5732 H   0  0  0  0  0  0  0  0  0  0  0  0
    2.7849   -4.5869   -1.0590 H   0  0  0  0  0  0  0  0  0  0  0  0
    2.6111   -6.4806   -2.1673 C   0  0  1  0  0  0  0  0  0  0  0  0
    3.2544   -5.9052   -2.7998 H   0  0  0  0  0  0  0  0  0  0  0  0
    2.6576   -6.1229   -3.5831 C   0  0  2  0  0  0  0  0  0  0  0  0
    1.9620   -6.0065   -2.2366 C   0  0  0  0  0  0  0  0  0  0  0  0
    1.7117   -4.9829   -2.0513 H   0  0  0  0  0  0  0  0  0  0  0  0
    1.0697   -6.5969   -2.2399 H   0  0  0  0  0  0  0  0  0  0  0  0
    2.6192   -6.3577   -1.4686 H   0  0  0  0  0  0  0  0  0  0  0  0
    2.2894   -4.8167   -3.7501 C   0  0  0  0  0  0  0  0  0  0  0  0
    2.9654   -4.5648   -4.5403 H   0  0  0  0  0  0  0  0  0  0  0  0
    2.6959   -5.4230   -4.5324 H   0  0  0  0  0  0  0  0  0  0  0  0
    0.5499   -3.7757   -2.2801 P   0  0  0  0  0  0  0  0  0  0  0  0
    1.5208   -2.2287   -2.1659 C   0  0  0  0  0  0  0  0  0  0  0  0
    1.7062   -1.0861   -2.8208 F   0  0  0  0  0  0  0  0  0  0  0  0
    1.9193   -2.0867   -0.9050 F   0  0  0  0  0  0  0  0  0  0  0  0
    2.2275   -3.1932   -2.7483 F   0  0  0  0  0  0  0  0  0  0  0  0
   -0.9165   -4.2977   -1.3178 C   0  0  0  0  0  0  0  0  0  0  0  0
   -1.9267   -3.4668   -1.5586 F   0  0  0  0  0  0  0  0  0  0  0  0
   -1.2633   -5.5317   -1.6726 F   0  0  0  0  0  0  0  0  0  0  0  0
   -0.6235   -4.2752   -0.0206 F   0  0  0  0  0  0  0  0  0  0  0  0
    0.6356   -2.2829   -1.8933 C   0  0  0  0  0  0  0  0  0  0  0  0
   -0.3725   -2.2474   -2.2502 H   0  0  0  0  0  0  0  0  0  0  0  0
    0.7671   -1.2351   -1.7207 H   0  0  0  0  0  0  0  0  0  0  0  0
    3.6150   -5.2169   -1.2677 H   0  0  0  0  0  0  0  0  0  0  0  0
    0.7378   -2.6478   -3.0527 H   0  0  0  0  0  0  0  0  0  0  0  0
  1  2  1  0  0  0  0
  2  3  1  0  0  0  0
  2  8  1  0  0  0  0
  3  5  1  0  0  0  0
  3  4  1  0  0  0  0
  5  6  1  0  0  0  0
  5 45  1  0  0  0  0
  6  7  1  0  0  0  0
  6 22  1  0  0  0  0
  7  8  1  0  0  0  0
  7 10  1  0  0  0  0
  8  9  1  0  0  0  0
 10 13  1  0  0  0  0
 10 11  1  0  0  0  0
 10 12  1  0  0  0  0
 13 22  1  0  0  0  0
 13 14  1  0  0  0  0
 13 18  1  0  0  0  0
 13 48  1  0  0  0  0
 14 15  1  0  0  0  0
 14 16  1  0  0  0  0
 14 17  1  0  0  0  0
 18 19  1  0  0  0  0
 18 20  1  0  0  0  0
 18 21  1  0  0  0  0
 22 23  1  0  0  0  0
 22 26  1  0  0  0  0
 22 28  1  0  0  0  0
 22 33  1  0  0  0  0
 22 36  1  0  0  0  0
 23 26  2  0  0  0  0
 23 24  1  0  0  0  0
 23 25  1  0  0  0  0
 26 28  1  0  0  0  0
 26 27  1  1  0  0  0
 28 33  2  0  0  0  0
 28 29  1  1  0  0  0
 29 30  1  0  0  0  0
 29 31  1  0  0  0  0
 29 32  1  0  0  0  0
 33 34  1  0  0  0  0
 33 35  1  0  0  0  0
 36 45  1  0  0  0  0
 36 37  1  0  0  0  0
 36 41  1  0  0  0  0
 36 49  1  0  0  0  0
 37 38  1  0  0  0  0
 37 39  1  0  0  0  0
 37 40  1  0  0  0  0
 41 42  1  0  0  0  0
 41 43  1  0  0  0  0
 41 44  1  0  0  0  0
 45 46  1  0  0  0  0
 45 47  1  0  0  0  0
M  END
$$$$
