
  --CCDC--092525    3D                              

 49 54  0  0  0  0  0  0  0  0999 V2000
    5.0120    1.8691   -5.4611 H      0
    4.4502    1.4867   -4.6153 C      0
    4.2797    0.1268   -4.4381 C      0
    4.7298   -0.5709   -5.1366 H      0
    3.5435   -0.3497   -3.3578 C      0
    2.9093    0.4956   -2.4550 C      0
    3.1680    1.8524   -2.6108 C      0
    3.9074    2.3486   -3.6809 C      0
    4.0626    3.4180   -3.7793 H      0
    2.6088    2.6712   -1.4952 C      0
    3.1198    3.6396   -1.4284 H      0
    1.5530    2.8902   -1.6737 H      0
    2.8969    1.7037    0.0092 P      0
    2.5327    1.6222    1.7920 C      0
    1.2706    1.9492    2.0485 F      0
    3.2130    2.5279    2.4876 F      0
    2.7635    0.4434    2.3587 F      0
    4.6834    1.7991    0.3080 C      0
    5.3961    1.5515   -0.7850 F      0
    5.1355    1.0972    1.3407 F      0
    5.0052    3.0573    0.5926 F      0
    1.6210   -0.2144   -0.9486 Ir     0
   -0.0202    0.9517   -1.1367 C      0
    0.0563    2.0118   -0.8744 H      0
   -0.7278    0.6609   -1.9229 H      0
   -0.0784    0.0717    0.0840 C      0
    0.5914    0.1359    1.0275 H      0
    0.2857   -1.4624   -0.2028 C      0
    1.4496   -1.6989    0.7493 C      0
    1.8053   -2.7101    0.6563 H      0
    1.1041   -1.6001    1.7766 H      0
    2.2343   -0.9662    0.6136 H      0
    0.4110   -1.7194   -1.6495 C      0
   -0.4395   -1.3753   -2.2509 H      0
    0.9114   -2.6356   -1.9604 H      0
    3.6282   -1.7139   -1.1845 P      0
    3.5249   -3.5121   -0.8472 C      0
    3.6085   -3.9150    0.4196 F      0
    4.4622   -4.1702   -1.5251 F      0
    2.4049   -4.0645   -1.2891 F      0
    4.8708   -1.6733    0.1504 C      0
    5.6816   -2.7253    0.2101 F      0
    4.3752   -1.4966    1.3700 F      0
    5.8112   -0.7832   -0.1028 F      0
    3.3828   -1.7785   -2.9716 C      0
    2.3883   -2.1580   -3.2347 H      0
    4.1303   -2.4172   -3.4582 H      0
    2.1820    2.8548    0.3612 H      0
    4.7652   -1.0999   -1.7231 H      0
  1  2  1
  2  3  4
  3  4  1
  3  5  4
  5  6  4
  6  7  4
  7  8  4
  2  8  4
  8  9  1
  7 10  1
 10 11  1
 10 12  1
 10 13  1
 13 14  1
 14 15  1
 14 16  1
 14 17  1
 13 18  1
 18 19  1
 18 20  1
 18 21  1
 13 22  1
  6 22  1
 22 23  1
 23 24  1
 23 25  1
 23 26  2
 22 26  1
 26 27  1
 26 28  1
 22 28  1
 28 29  1
 29 30  1
 29 31  1
 29 32  1
 28 33  2
 22 33  1
 33 34  1
 33 35  1
 22 36  1
 36 37  1
 37 38  1
 37 39  1
 37 40  1
 36 41  1
 41 42  1
 41 43  1
 41 44  1
 36 45  1
  5 45  1
 45 46  1
 45 47  1
 13 48  1
 36 49  1
M  END
$$$$
