
     RDKit          3D

 23 24  0  0  0  0  0  0  0  0999 V2000
    3.5329   -0.1434    0.2461 C   0  0  0  0  0  0  0  0  0  0  0  0
    2.9947    0.2542   -0.9793 C   0  0  0  0  0  0  0  0  0  0  0  0
    1.6677    0.6761   -1.0554 C   0  0  0  0  0  0  0  0  0  0  0  0
    0.8863    0.6876    0.1033 C   0  0  0  0  0  0  0  0  0  0  0  0
   -0.8175    1.2165    0.0081 S   0  0  0  0  0  6  0  0  0  0  0  0
   -0.8887    2.1354   -1.1170 O   0  0  0  0  0  0  0  0  0  0  0  0
   -1.1670    1.6855    1.3390 O   0  0  0  0  0  0  0  0  0  0  0  0
   -1.7554   -0.2676   -0.3953 C   0  0  2  0  0  0  0  0  0  0  0  0
   -3.1876    0.1013   -0.3450 N   0  0  0  0  0  0  0  0  0  0  0  0
   -3.5160   -0.9743    0.4185 C   0  0  0  0  0  0  0  0  0  0  0  0
   -4.5840   -1.4957    0.6167 O   0  0  0  0  0  0  0  0  0  0  0  0
   -2.0400   -1.2403    0.7601 C   0  0  0  0  0  0  0  0  0  0  0  0
    1.4227    0.3071    1.3364 C   0  0  0  0  0  0  0  0  0  0  0  0
    2.7506   -0.1135    1.4022 C   0  0  0  0  0  0  0  0  0  0  0  0
    4.5708   -0.4646    0.3030 H   0  0  0  0  0  0  0  0  0  0  0  0
    3.6154    0.2449   -1.8724 H   0  0  0  0  0  0  0  0  0  0  0  0
    1.2619    1.0021   -2.0106 H   0  0  0  0  0  0  0  0  0  0  0  0
   -1.4719   -0.7135   -1.3539 H   0  0  0  0  0  0  0  0  0  0  0  0
   -3.8036    0.3579   -1.1047 H   0  0  0  0  0  0  0  0  0  0  0  0
   -1.7174   -2.2693    0.5859 H   0  0  0  0  0  0  0  0  0  0  0  0
   -1.7619   -0.9237    1.7684 H   0  0  0  0  0  0  0  0  0  0  0  0
    0.8262    0.3452    2.2455 H   0  0  0  0  0  0  0  0  0  0  0  0
    3.1818   -0.4079    2.3565 H   0  0  0  0  0  0  0  0  0  0  0  0
  1  2  2  0
  2  3  1  0
  3  4  2  0
  4  5  1  0
  5  6  2  0
  5  7  2  0
  5  8  1  0
  8  9  1  0
  9 10  1  0
 10 11  2  0
 10 12  1  0
  4 13  1  0
 13 14  2  0
 14  1  1  0
 12  8  1  0
  1 15  1  0
  2 16  1  0
  3 17  1  0
  8 18  1  6
  9 19  1  0
 12 20  1  0
 12 21  1  0
 13 22  1  0
 14 23  1  0
M  END
