
     RDKit          3D

 57 60  0  0  0  0  0  0  0  0999 V2000
   -5.0061    0.8964    2.7945 C   0  0  0  0  0  0  0  0  0  0  0  0
   -5.3920    1.1694    1.4846 C   0  0  0  0  0  0  0  0  0  0  0  0
   -4.5658    0.7963    0.4229 C   0  0  0  0  0  0  0  0  0  0  0  0
   -3.3370    0.1661    0.6596 C   0  0  0  0  0  0  0  0  0  0  0  0
   -2.5658   -0.2412   -0.5089 N   0  0  0  0  0  0  0  0  0  0  0  0
   -1.1311   -0.3944   -0.2866 C   0  0  0  0  0  0  0  0  0  0  0  0
   -0.3498    0.7008   -0.4119 C   0  0  0  0  0  0  0  0  0  0  0  0
    1.0742    0.6294   -0.2801 C   0  0  0  0  0  0  0  0  0  0  0  0
    2.2719    0.5842   -0.1842 C   0  0  0  0  0  0  0  0  0  0  0  0
    3.7016    0.5346   -0.0787 C   0  0  0  0  0  0  0  0  0  0  0  0
    4.3926    1.7248    0.1792 C   0  0  0  0  0  0  0  0  0  0  0  0
    5.7826    1.7212    0.2832 C   0  0  0  0  0  0  0  0  0  0  0  0
    6.4846    0.5282    0.1314 C   0  0  0  0  0  0  0  0  0  0  0  0
    5.8011   -0.6640   -0.1270 C   0  0  0  0  0  0  0  0  0  0  0  0
    4.4060   -0.6721   -0.2394 C   0  0  0  0  0  0  0  0  0  0  0  0
    3.6552   -1.7941   -0.4817 O   0  0  0  0  0  0  0  0  0  0  0  0
    4.3466   -2.9670   -0.8894 C   0  0  0  0  0  0  0  0  0  0  0  0
   -0.8760    2.4722   -0.8733 Si  0  0  0  0  0  4  0  0  0  0  0  0
    0.6136    3.4642   -1.5135 C   0  0  0  0  0  0  0  0  0  0  0  0
   -1.5286    3.3741    0.6391 C   0  0  0  0  0  0  0  0  0  0  0  0
   -2.1484    2.4801   -2.2551 C   0  0  0  0  0  0  0  0  0  0  0  0
   -0.7401   -1.8082   -0.0753 C   0  0  0  0  0  0  0  0  0  0  0  0
    0.3799   -2.3616    0.5331 C   0  0  0  0  0  0  0  0  0  0  0  0
    0.4818   -3.7552    0.6631 C   0  0  0  0  0  0  0  0  0  0  0  0
   -0.5411   -4.5990    0.2082 C   0  0  0  0  0  0  0  0  0  0  0  0
   -1.6798   -4.0582   -0.3798 C   0  0  0  0  0  0  0  0  0  0  0  0
   -1.7369   -2.6781   -0.5071 C   0  0  0  0  0  0  0  0  0  0  0  0
   -3.0917   -1.7844   -1.1501 S   0  0  0  0  0  6  0  0  0  0  0  0
   -4.2917   -2.2595   -0.4963 O   0  0  0  0  0  0  0  0  0  0  0  0
   -2.9402   -1.7727   -2.5900 O   0  0  0  0  0  0  0  0  0  0  0  0
   -2.9741   -0.1343    1.9795 C   0  0  0  0  0  0  0  0  0  0  0  0
   -3.8014    0.2412    3.0418 C   0  0  0  0  0  0  0  0  0  0  0  0
   -5.6511    1.1807    3.6221 H   0  0  0  0  0  0  0  0  0  0  0  0
   -6.3405    1.6620    1.2863 H   0  0  0  0  0  0  0  0  0  0  0  0
   -4.8880    0.9975   -0.5959 H   0  0  0  0  0  0  0  0  0  0  0  0
    3.8499    2.6598    0.2979 H   0  0  0  0  0  0  0  0  0  0  0  0
    6.3159    2.6471    0.4826 H   0  0  0  0  0  0  0  0  0  0  0  0
    7.5688    0.5234    0.2158 H   0  0  0  0  0  0  0  0  0  0  0  0
    6.3876   -1.5709   -0.2288 H   0  0  0  0  0  0  0  0  0  0  0  0
    4.9620   -2.7804   -1.7759 H   0  0  0  0  0  0  0  0  0  0  0  0
    4.9465   -3.3722   -0.0682 H   0  0  0  0  0  0  0  0  0  0  0  0
    3.5984   -3.7197   -1.1563 H   0  0  0  0  0  0  0  0  0  0  0  0
    1.3624    3.5913   -0.7265 H   0  0  0  0  0  0  0  0  0  0  0  0
    1.0750    2.9569   -2.3658 H   0  0  0  0  0  0  0  0  0  0  0  0
    0.2869    4.4567   -1.8378 H   0  0  0  0  0  0  0  0  0  0  0  0
   -2.4618    2.9367    0.9986 H   0  0  0  0  0  0  0  0  0  0  0  0
   -1.7212    4.4246    0.4005 H   0  0  0  0  0  0  0  0  0  0  0  0
   -0.7980    3.3391    1.4526 H   0  0  0  0  0  0  0  0  0  0  0  0
   -2.2961    3.4987   -2.6269 H   0  0  0  0  0  0  0  0  0  0  0  0
   -3.1178    2.1082   -1.9174 H   0  0  0  0  0  0  0  0  0  0  0  0
   -1.8130    1.8595   -3.0913 H   0  0  0  0  0  0  0  0  0  0  0  0
    1.1788   -1.7439    0.9300 H   0  0  0  0  0  0  0  0  0  0  0  0
    1.3648   -4.1838    1.1334 H   0  0  0  0  0  0  0  0  0  0  0  0
   -0.4474   -5.6762    0.3259 H   0  0  0  0  0  0  0  0  0  0  0  0
   -2.4947   -4.6883   -0.7217 H   0  0  0  0  0  0  0  0  0  0  0  0
   -2.0526   -0.6581    2.2117 H   0  0  0  0  0  0  0  0  0  0  0  0
   -3.5086    0.0121    4.0634 H   0  0  0  0  0  0  0  0  0  0  0  0
  1  2  2  0
  2  3  1  0
  3  4  2  0
  4  5  1  0
  5  6  1  0
  6  7  2  0
  7  8  1  0
  8  9  3  0
  9 10  1  0
 10 11  2  0
 11 12  1  0
 12 13  2  0
 13 14  1  0
 14 15  2  0
 15 16  1  0
 16 17  1  0
  7 18  1  0
 18 19  1  0
 18 20  1  0
 18 21  1  0
  6 22  1  0
 22 23  2  0
 23 24  1  0
 24 25  2  0
 25 26  1  0
 26 27  2  0
 27 28  1  0
 28 29  2  0
 28 30  2  0
  4 31  1  0
 31 32  2  0
 32  1  1  0
 28  5  1  0
 15 10  1  0
 27 22  1  0
  1 33  1  0
  2 34  1  0
  3 35  1  0
 11 36  1  0
 12 37  1  0
 13 38  1  0
 14 39  1  0
 17 40  1  0
 17 41  1  0
 17 42  1  0
 19 43  1  0
 19 44  1  0
 19 45  1  0
 20 46  1  0
 20 47  1  0
 20 48  1  0
 21 49  1  0
 21 50  1  0
 21 51  1  0
 23 52  1  0
 24 53  1  0
 25 54  1  0
 26 55  1  0
 31 56  1  0
 32 57  1  0
M  END
