
  --CCDC--092525    3D                              

 55 54  0  0  0  0  0  0  0  0999 V2000
   -0.7571    1.2526   -0.3396 H      0
    0.0670    1.9308   -0.1309 C      0
    0.1855    2.5832   -0.9936 H      0
    0.9760    1.3425   -0.0277 H      0
   -0.2028    2.7499    1.1214 C      0
   -1.1490    3.2755    0.9403 H      0
    0.5714    3.5244    1.1231 H      0
   -0.4263    1.7856    2.6824 P      0
   -1.3573    0.3488    2.0089 C      0
   -2.0918    0.7757    1.3169 H      0
   -1.9457   -0.1096    2.8102 H      0
   -0.6957   -0.7960    1.2413 C      0
    0.2302   -0.4995    0.7582 H      0
   -1.3712   -1.1603    0.4701 H      0
   -0.4819   -1.6412    1.8905 H      0
   -1.9099    2.2746    3.6496 C      0
   -2.2674    1.3952    4.1970 H      0
   -1.7512    3.0462    4.4057 H      0
   -3.0586    2.7578    2.7746 C      0
   -3.4495    1.9609    2.1478 H      0
   -2.7353    3.5720    2.1293 H      0
   -3.8771    3.1231    3.3914 H      0
    0.8963    2.0795    3.6128 O      0
    0.0877    4.0479    3.3845 I      0
    1.4281    0.0283    3.3890 I      0
    1.8846    2.8212    4.2765 C      0
    2.7143    3.4666    4.7234 O      0
    1.8916    2.0715    2.6149 C      0
    1.6915    1.3758    1.8035 H      0
    2.0811    3.0654    2.2182 H      0
    2.8278    1.7422    3.0608 H      0
    0.4606    1.6640    5.1498 P      0
    0.1427    3.1680    6.1630 C      0
   -0.5573    3.8605    5.6927 H      0
    1.0494    3.7373    6.3971 H      0
   -0.5780    2.8231    7.4604 C      0
   -1.6345    2.6544    7.2624 H      0
   -0.5009    3.6407    8.1741 H      0
   -0.1977    1.9208    7.9268 H      0
    1.8882    1.0369    6.1332 C      0
    1.5877    0.0699    6.5546 H      0
    2.7496    0.8233    5.4894 H      0
    2.4581    1.8591    7.2863 C      0
    2.7195    2.8687    6.9842 H      0
    3.3651    1.3863    7.6572 H      0
    1.7765    1.9265    8.1265 H      0
   -0.3144    0.0042    5.2734 C      0
   -1.0949   -0.1299    4.5222 H      0
    0.3995   -0.8249    5.2095 H      0
   -0.9802   -0.1893    6.6286 C      0
   -1.8031    0.5084    6.7698 H      0
   -0.2647   -0.0370    7.4339 H      0
   -1.3783   -1.1979    6.7181 H      0
    0.2711    0.5884    2.8802 H      0
   -0.8747    1.7533    5.5403 H      0
  1  2  1
  2  3  1
  2  4  1
  2  5  1
  5  6  1
  5  7  1
  5  8  1
  8  9  1
  9 10  1
  9 11  1
  9 12  1
 12 13  1
 12 14  1
 12 15  1
  8 16  1
 16 17  1
 16 18  1
 16 19  1
 19 20  1
 19 21  1
 19 22  1
  8 23  1
 23 24  1
 23 25  1
 23 26  1
 26 27  3
 23 28  1
 28 29  1
 28 30  1
 28 31  1
 23 32  1
 32 33  1
 33 34  1
 33 35  1
 33 36  1
 36 37  1
 36 38  1
 36 39  1
 32 40  1
 40 41  1
 40 42  1
 40 43  1
 43 44  1
 43 45  1
 43 46  1
 32 47  1
 47 48  1
 47 49  1
 47 50  1
 50 51  1
 50 52  1
 50 53  1
  8 54  1
 32 55  1
M  END
$$$$
