
     RDKit          3D

 23 24  0  0  0  0  0  0  0  0999 V2000
    3.9386    0.5179    2.0259 O   0  0  0  0  0  0  0  0  0  0  0  0
    3.1847    0.3817    1.0956 C   0  0  0  0  0  0  0  0  0  0  0  0
    3.2636    0.3395   -0.4378 C   0  0  0  0  0  0  0  0  0  0  0  0
    1.7542    0.6218   -0.3729 C   0  0  0  0  0  0  0  0  0  0  0  0
    1.8246    0.3219    1.0760 N   0  0  0  0  0  0  0  0  0  0  0  0
    0.7014   -0.6213   -1.1454 S   0  0  0  0  0  0  0  0  0  0  0  0
    0.5971   -0.3022   -2.5604 O   0  0  0  0  0  0  0  0  0  0  0  0
    1.1281   -1.9548   -0.7535 O   0  0  0  0  0  0  0  0  0  0  0  0
   -0.9355   -0.3958   -0.4676 C   0  0  0  0  0  0  0  0  0  0  0  0
   -1.8251    0.4835   -1.0910 C   0  0  0  0  0  0  0  0  0  0  0  0
   -3.1010    0.6571   -0.5551 C   0  0  0  0  0  0  0  0  0  0  0  0
   -3.4822   -0.0496    0.5873 C   0  0  0  0  0  0  0  0  0  0  0  0
   -2.5935   -0.9386    1.1949 C   0  0  0  0  0  0  0  0  0  0  0  0
   -1.3160   -1.1192    0.6662 C   0  0  0  0  0  0  0  0  0  0  0  0
    3.5772   -0.6302   -0.8325 H   0  0  0  0  0  0  0  0  0  0  0  0
    3.8641    1.1388   -0.8778 H   0  0  0  0  0  0  0  0  0  0  0  0
    1.4370    1.6493   -0.5761 H   0  0  0  0  0  0  0  0  0  0  0  0
    1.3462    0.7810    1.8401 H   0  0  0  0  0  0  0  0  0  0  0  0
   -1.5430    1.0240   -1.9917 H   0  0  0  0  0  0  0  0  0  0  0  0
   -3.8047    1.3349   -1.0329 H   0  0  0  0  0  0  0  0  0  0  0  0
   -4.4808    0.0828    0.9980 H   0  0  0  0  0  0  0  0  0  0  0  0
   -2.9020   -1.4982    2.0751 H   0  0  0  0  0  0  0  0  0  0  0  0
   -0.6329   -1.8243    1.1356 H   0  0  0  0  0  0  0  0  0  0  0  0
  1  2  2  0
  2  3  1  0
  3  4  1  0
  4  5  1  0
  4  6  1  0
  6  7  2  0
  6  8  2  0
  6  9  1  0
  9 10  2  0
 10 11  1  0
 11 12  2  0
 12 13  1  0
 13 14  2  0
  5  2  1  0
 14  9  1  0
  3 15  1  0
  3 16  1  0
  4 17  1  0
  5 18  1  0
 10 19  1  0
 11 20  1  0
 12 21  1  0
 13 22  1  0
 14 23  1  0
M  END
