
  --CCDC--092525    3D                              

 75 87  0  0  0  0  0  0  0  0999 V2000
   -1.9612   -2.4969   -1.4836 H      0
   -1.4052   -1.6577   -1.0664 C      0
   -0.3588   -1.1194   -1.8423 C      0
   -0.0913   -1.5886   -2.7832 H      0
    0.3667   -0.0299   -1.3862 C      0
    1.2573    0.3806   -1.8528 H      0
   -0.4295    0.6153   -0.4228 C      0
    0.1681    1.6510    0.2944 C      0
    1.8381    2.4717    0.5316 Si     0
    3.3287    1.7731   -0.3546 C      0
    3.8253    1.0021    0.2267 H      0
    4.0583    2.5593   -0.5372 H      0
    3.0444    1.3513   -1.3163 H      0
    2.1590    3.0674    2.2729 C      0
    1.2885    3.5905    2.6631 H      0
    2.9982    3.7597    2.2874 H      0
    2.3912    2.2549    2.9497 H      0
    1.5867    4.0773   -0.3873 C      0
    0.7497    4.6334    0.0297 H      0
    1.3797    3.8914   -1.4391 H      0
    2.4750    4.7022   -0.3220 H      0
   -0.8154    2.0389    1.3246 C      0
   -0.8286    2.4910    2.3859 H      0
   -1.8826    1.1410    1.3178 C      0
   -1.6839    0.1964    0.2550 C      0
   -1.7538   -1.1955    0.2199 C      0
   -2.3237   -1.7564    0.9572 H      0
    0.0569   -0.2615    1.7131 Zr     0
    2.1270   -0.9169    0.0531 Cl     0
   -0.2273   -2.5704    0.2620 Cl     0
    1.0430    0.0886    3.9255 C      0
    0.9476    1.0652    3.3452 H      0
    1.9246   -0.8053    3.2114 C      0
    3.7603   -0.6223    2.7114 Si     0
    4.5390   -1.4381    4.1993 C      0
    4.2595   -0.9194    5.1140 H      0
    4.2160   -2.4735    4.2846 H      0
    5.6242   -1.4269    4.1215 H      0
    4.5039   -1.6733    1.3549 C      0
    3.8608   -2.5177    1.1157 H      0
    5.4672   -2.0665    1.6730 H      0
    4.6779   -1.0944    0.4506 H      0
    4.5497    1.0674    2.8136 C      0
    4.2314    1.5825    3.7175 H      0
    4.3001    1.6937    1.9665 H      0
    5.6333    0.9760    2.8468 H      0
    1.0293   -1.9364    2.9979 C      0
    0.8185   -2.6676    1.8175 C      0
    1.6657   -2.8518    1.1662 H      0
   -0.2009   -3.6316    1.9668 C      0
   -0.0749   -4.6069    1.4950 H      0
   -1.3691   -3.4437    2.7067 C      0
   -2.1653   -4.1801    2.6749 H      0
   -1.5069   -2.3006    3.4520 C      0
   -2.4295   -1.9759    3.9218 H      0
   -0.2763   -1.6619    3.5957 C      0
   -0.2806   -0.3903    4.1260 C      0
   -1.5794    0.9113    4.4834 Si     0
   -0.7186    2.5233    4.9092 C      0
    0.0101    2.8023    4.1524 H      0
   -0.1903    2.4317    5.8559 H      0
   -1.4399    3.3323    5.0044 H      0
   -2.4298    0.3883    6.0693 C      0
   -2.9077   -0.5817    5.9489 H      0
   -3.1935    1.1094    6.3533 H      0
   -1.7135    0.3143    6.8848 H      0
   -3.1093    0.9549    2.7215 Si     0
   -4.2248    2.4604    2.7519 C      0
   -4.9005    2.4227    3.6039 H      0
   -4.8247    2.5143    1.8458 H      0
   -3.6381    3.3738    2.8248 H      0
   -4.2097   -0.5462    2.4935 C      0
   -3.6329   -1.4581    2.3805 H      0
   -4.8690   -0.6701    3.3501 H      0
   -4.8302   -0.4322    1.6071 H      0
  1  2  1
  2  3  4
  3  4  1
  3  5  4
  5  6  1
  5  7  4
  7  8  4
  8  9  1
  9 10  1
 10 11  1
 10 12  1
 10 13  1
  9 14  1
 14 15  1
 14 16  1
 14 17  1
  9 18  1
 18 19  1
 18 20  1
 18 21  1
  8 22  4
 22 23  1
 22 24  4
 24 25  4
  7 25  4
 25 26  4
  2 26  4
 26 27  1
 25 28  1
 22 28  1
 24 28  1
  8 28  1
  7 28  1
 28 29  1
 28 30  1
 28 31  1
 31 32  1
 31 33  4
 28 33  1
 33 34  1
 34 35  1
 35 36  1
 35 37  1
 35 38  1
 34 39  1
 39 40  1
 39 41  1
 39 42  1
 34 43  1
 43 44  1
 43 45  1
 43 46  1
 33 47  4
 28 47  1
 47 48  4
 48 49  1
 48 50  4
 50 51  1
 50 52  4
 52 53  1
 52 54  4
 54 55  1
 54 56  4
 47 56  4
 28 56  1
 56 57  4
 31 57  4
 28 57  1
 57 58  1
 58 59  1
 59 60  1
 59 61  1
 59 62  1
 58 63  1
 63 64  1
 63 65  1
 63 66  1
 58 67  1
 24 67  1
 67 68  1
 68 69  1
 68 70  1
 68 71  1
 67 72  1
 72 73  1
 72 74  1
 72 75  1
M  END
$$$$
