
     RDKit          3D

 42 41  0  0  0  0  0  0  0  0999 V2000
    1.4752   -1.4480    1.5435 C   0  0  0  0  0  0  0  0  0  0  0  0
    0.0642   -0.3814    0.6893 Pt  0  0  0  0  0  6  0  0  0  0  0  0
    0.1048    1.2764    1.5762 C   0  0  0  0  0  0  0  0  0  0  0  0
   -1.1195   -1.2579    1.9659 C   0  0  0  0  0  0  0  0  0  0  0  0
   -0.0478   -1.4524   -0.6269 N   0  0  0  0  0  0  0  0  0  0  0  0
   -0.1254   -2.6302   -0.8873 N   0  0  0  0  0  4  0  0  0  0  0  0
    0.3486   -3.5900   -1.4106 N   0  0  0  0  0  2  0  0  0  0  0  0
   -1.5720    0.0627   -0.3897 P   0  0  0  0  0  4  0  0  0  0  0  0
   -2.6777    1.2694    0.5181 C   0  0  0  0  0  0  0  0  0  0  0  0
   -2.9758   -1.1679   -0.5653 C   0  0  0  0  0  0  0  0  0  0  0  0
   -1.4907    0.9351   -1.9071 C   0  0  0  0  0  0  0  0  0  0  0  0
    1.4888    0.2979   -0.4968 P   0  0  0  0  0  4  0  0  0  0  0  0
    1.1736    1.7543   -1.4660 C   0  0  0  0  0  0  0  0  0  0  0  0
    3.0285    0.9476    0.4296 C   0  0  0  0  0  0  0  0  0  0  0  0
    2.5105   -0.7800   -1.5483 C   0  0  0  0  0  0  0  0  0  0  0  0
    2.3779   -1.6281    1.0524 H   0  0  0  0  0  0  0  0  0  0  0  0
    1.2664   -2.5008    1.8194 H   0  0  0  0  0  0  0  0  0  0  0  0
    1.7789   -0.9578    2.4818 H   0  0  0  0  0  0  0  0  0  0  0  0
    0.8642    1.3624    2.4115 H   0  0  0  0  0  0  0  0  0  0  0  0
   -0.7884    1.5349    2.2475 H   0  0  0  0  0  0  0  0  0  0  0  0
    0.1390    2.2652    1.1133 H   0  0  0  0  0  0  0  0  0  0  0  0
   -2.0331   -0.7442    2.1696 H   0  0  0  0  0  0  0  0  0  0  0  0
   -1.3563   -2.2820    1.7917 H   0  0  0  0  0  0  0  0  0  0  0  0
   -0.7785   -1.2013    3.0500 H   0  0  0  0  0  0  0  0  0  0  0  0
   -3.4979    1.5405   -0.0958 H   0  0  0  0  0  0  0  0  0  0  0  0
   -2.0714    2.2073    0.6872 H   0  0  0  0  0  0  0  0  0  0  0  0
   -3.0510    0.8647    1.4477 H   0  0  0  0  0  0  0  0  0  0  0  0
   -2.5145   -2.0372   -1.1227 H   0  0  0  0  0  0  0  0  0  0  0  0
   -3.3147   -1.5022    0.4101 H   0  0  0  0  0  0  0  0  0  0  0  0
   -3.6500   -0.7021   -1.2421 H   0  0  0  0  0  0  0  0  0  0  0  0
   -1.3344    2.0253   -1.8976 H   0  0  0  0  0  0  0  0  0  0  0  0
   -1.0277    0.3822   -2.7573 H   0  0  0  0  0  0  0  0  0  0  0  0
   -2.5839    0.9276   -2.2612 H   0  0  0  0  0  0  0  0  0  0  0  0
    2.1607    2.2842   -1.6893 H   0  0  0  0  0  0  0  0  0  0  0  0
    0.8855    1.5296   -2.5054 H   0  0  0  0  0  0  0  0  0  0  0  0
    0.6478    2.5583   -0.9422 H   0  0  0  0  0  0  0  0  0  0  0  0
    3.6706    1.4392   -0.2707 H   0  0  0  0  0  0  0  0  0  0  0  0
    2.5583    1.7354    1.0662 H   0  0  0  0  0  0  0  0  0  0  0  0
    3.4439    0.1235    1.0073 H   0  0  0  0  0  0  0  0  0  0  0  0
    3.0809   -0.1440   -2.1737 H   0  0  0  0  0  0  0  0  0  0  0  0
    1.8455   -1.3905   -2.2331 H   0  0  0  0  0  0  0  0  0  0  0  0
    3.0968   -1.5257   -0.9892 H   0  0  0  0  0  0  0  0  0  0  0  0
  1  2  1  0
  2  3  1  0
  2  4  1  0
  2  5  1  0
  5  6  2  0
  6  7  2  0
  2  8  1  0
  8  9  1  0
  8 10  1  0
  8 11  1  0
  2 12  1  0
 12 13  1  0
 12 14  1  0
 12 15  1  0
  1 16  1  0
  1 17  1  0
  1 18  1  0
  3 19  1  0
  3 20  1  0
  3 21  1  0
  4 22  1  0
  4 23  1  0
  4 24  1  0
  9 25  1  0
  9 26  1  0
  9 27  1  0
 10 28  1  0
 10 29  1  0
 10 30  1  0
 11 31  1  0
 11 32  1  0
 11 33  1  0
 13 34  1  0
 13 35  1  0
 13 36  1  0
 14 37  1  0
 14 38  1  0
 14 39  1  0
 15 40  1  0
 15 41  1  0
 15 42  1  0
M  CHG  2   6   1   7  -1
M  RAD  2   8   2  12   2
M  END
