
 OpenBabel09252516083D

 46 54  0  0  0  0  0  0  0  0999 V2000
    0.9655   -0.0932    0.0113 Cl  0  0  0  0  0  0  0  0  0  0  0  0
    3.3955   -0.0932    0.0113 Ir  0  0  0  0  0  0  0  0  0  0  0  0
    3.5933   -0.2461   -1.3787 C   0  0  0  0  0  0  0  0  0  0  0  0
    3.7033    0.8318   -2.1936 C   0  0  0  0  0  0  0  0  0  0  0  0
    3.6323    2.1486   -1.6887 C   0  0  0  0  0  0  0  0  0  0  0  0
    3.7506    3.2544   -2.5420 C   0  0  0  0  0  0  0  0  0  0  0  0
    3.6820    4.5365   -2.0403 C   0  0  0  0  0  0  0  0  0  0  0  0
    3.4949    4.7715   -0.6840 C   0  0  0  0  0  0  0  0  0  0  0  0
    3.3714    3.6783    0.2071 C   0  0  0  0  0  0  0  0  0  0  0  0
    3.1809    3.8688    1.5810 C   0  0  0  0  0  0  0  0  0  0  0  0
    3.0633    2.7812    2.4216 C   0  0  0  0  0  0  0  0  0  0  0  0
    3.1301    1.4874    1.9323 C   0  0  0  0  0  0  0  0  0  0  0  0
    3.3188    1.2645    0.5715 C   0  0  0  0  0  0  0  0  0  0  0  0
    3.4412    2.3635   -0.3040 C   0  0  0  0  0  0  0  0  0  0  0  0
    1.7003    1.2411   -0.2232 C   0  0  0  0  0  0  0  0  0  0  0  0
    2.2742    0.5731   -1.4620 C   0  0  0  0  0  0  0  0  0  0  0  0
    1.6329    2.5008    0.2372 C   0  0  0  0  0  0  0  0  0  0  0  0
    2.7460    3.3221   -0.3926 C   0  0  0  0  0  0  0  0  0  0  0  0
    0.4489    3.0560   -0.0679 C   0  0  0  0  0  0  0  0  0  0  0  0
    0.0109    4.4647    0.2984 C   0  0  0  0  0  0  0  0  0  0  0  0
   -0.2730    2.1749   -0.7398 C   0  0  0  0  0  0  0  0  0  0  0  0
   -1.6745    2.3714   -1.2945 C   0  0  0  0  0  0  0  0  0  0  0  0
    0.5670    0.9533   -0.8410 C   0  0  0  0  0  0  0  0  0  0  0  0
    0.1991   -0.3579   -1.5161 C   0  0  0  0  0  0  0  0  0  0  0  0
    3.6574   -1.2294   -1.7957 H   0  0  0  0  0  0  0  0  0  0  0  0
    3.8953    3.1021   -3.5912 H   0  0  0  0  0  0  0  0  0  0  0  0
    3.7747    5.3669   -2.7087 H   0  0  0  0  0  0  0  0  0  0  0  0
    3.4445    5.7744   -0.3143 H   0  0  0  0  0  0  0  0  0  0  0  0
    3.1263    4.8601    1.9800 H   0  0  0  0  0  0  0  0  0  0  0  0
    2.9179    2.9400    3.4698 H   0  0  0  0  0  0  0  0  0  0  0  0
    3.0366    0.6577    2.6015 H   0  0  0  0  0  0  0  0  0  0  0  0
    3.2992    0.8572   -1.5781 H   0  0  0  0  0  0  0  0  0  0  0  0
    2.2084   -0.4897   -1.3570 H   0  0  0  0  0  0  0  0  0  0  0  0
    1.7189    0.8814   -2.3231 H   0  0  0  0  0  0  0  0  0  0  0  0
    2.6198    3.3386   -1.4550 H   0  0  0  0  0  0  0  0  0  0  0  0
    2.7096    4.3221   -0.0136 H   0  0  0  0  0  0  0  0  0  0  0  0
    3.6922    2.8840   -0.1526 H   0  0  0  0  0  0  0  0  0  0  0  0
    0.0176    4.5749    1.3627 H   0  0  0  0  0  0  0  0  0  0  0  0
    0.6845    5.1725   -0.1377 H   0  0  0  0  0  0  0  0  0  0  0  0
   -0.9778    4.6384   -0.0719 H   0  0  0  0  0  0  0  0  0  0  0  0
   -2.3476    2.5932   -0.4929 H   0  0  0  0  0  0  0  0  0  0  0  0
   -1.6714    3.1825   -1.9924 H   0  0  0  0  0  0  0  0  0  0  0  0
   -1.9911    1.4768   -1.7888 H   0  0  0  0  0  0  0  0  0  0  0  0
   -0.6720   -0.7675   -1.0489 H   0  0  0  0  0  0  0  0  0  0  0  0
   -0.0013   -0.1817   -2.5523 H   0  0  0  0  0  0  0  0  0  0  0  0
    1.0118   -1.0476   -1.4223 H   0  0  0  0  0  0  0  0  0  0  0  0
  1  2  1  0  0  0  0
  2  3  1  0  0  0  0
  2  4  1  0  0  0  0
  2 13  1  0  0  0  0
  2 15  1  0  0  0  0
  2 17  1  0  0  0  0
  2 19  1  0  0  0  0
  2 21  1  0  0  0  0
  2 23  1  0  0  0  0
  3  4  2  0  0  0  0
  3 25  1  0  0  0  0
  4  5  1  0  0  0  0
  5  6  1  0  0  0  0
  5 14  2  0  0  0  0
  6  7  2  0  0  0  0
  6 26  1  0  0  0  0
  7  8  1  0  0  0  0
  7 27  1  0  0  0  0
  8  9  2  0  0  0  0
  8 28  1  0  0  0  0
  9 10  1  0  0  0  0
  9 14  1  0  0  0  0
 10 11  2  0  0  0  0
 10 29  1  0  0  0  0
 11 12  1  0  0  0  0
 11 30  1  0  0  0  0
 12 13  2  0  0  0  0
 12 31  1  0  0  0  0
 13 14  1  0  0  0  0
 15 16  1  0  0  0  0
 15 17  1  0  0  0  0
 15 23  2  0  0  0  0
 16 32  1  0  0  0  0
 16 33  1  0  0  0  0
 16 34  1  0  0  0  0
 17 18  1  0  0  0  0
 17 19  1  0  0  0  0
 18 35  1  0  0  0  0
 18 36  1  0  0  0  0
 18 37  1  0  0  0  0
 19 20  1  0  0  0  0
 19 21  2  0  0  0  0
 20 38  1  0  0  0  0
 20 39  1  0  0  0  0
 20 40  1  0  0  0  0
 21 22  1  0  0  0  0
 21 23  1  0  0  0  0
 22 41  1  0  0  0  0
 22 42  1  0  0  0  0
 22 43  1  0  0  0  0
 23 24  1  0  0  0  0
 24 44  1  0  0  0  0
 24 45  1  0  0  0  0
 24 46  1  0  0  0  0
M  END
$$$$
