
 OpenBabel09252516483D

 76 82  0  0  1  0  0  0  0  0999 V2000
    0.9928   -0.0215    0.0974 H   0  0  0  0  0  0  0  0  0  0  0  0
    2.0628   -0.0215    0.0974 C   0  0  0  0  0  3  0  0  0  0  0  0
    2.5751   -1.4044   -0.3117 C   0  0  0  0  0  3  0  0  0  0  0  0
    2.1859   -2.1418    0.3589 H   0  0  0  0  0  0  0  0  0  0  0  0
    2.1448   -1.6965   -1.6430 C   0  0  0  0  0  3  0  0  0  0  0  0
    2.4851   -2.6783   -1.8983 H   0  0  0  0  0  0  0  0  0  0  0  0
    2.6323   -0.7825   -2.6270 C   0  0  0  0  0  3  0  0  0  0  0  0
    4.4622   -0.7868   -2.6104 P   0  0  0  0  0  0  0  0  0  0  0  0
    4.4777   -1.1210   -4.4096 C   0  0  0  0  0  3  0  0  0  0  0  0
    3.7494   -2.4370   -4.6923 C   0  0  0  0  0  3  0  0  0  0  0  0
    4.2175   -3.2285   -4.1453 H   0  0  0  0  0  0  0  0  0  0  0  0
    2.3835   -2.3213   -4.2879 C   0  0  0  0  0  3  0  0  0  0  0  0
    1.9002   -3.2596   -4.4638 H   0  0  0  0  0  0  0  0  0  0  0  0
    1.6550   -1.3048   -4.9789 C   0  0  0  0  0  3  0  0  0  0  0  0
    1.6728   -1.5050   -6.0299 H   0  0  0  0  0  0  0  0  0  0  0  0
    2.2986    0.0570   -4.7078 C   0  0  0  0  0  3  0  0  0  0  0  0
    1.7801    0.8141   -5.2581 H   0  0  0  0  0  0  0  0  0  0  0  0
    3.7651    0.0164   -5.1488 C   0  0  0  0  0  3  0  0  0  0  0  0
    3.8177   -0.1533   -6.2039 H   0  0  0  0  0  0  0  0  0  0  0  0
    4.4482   -2.1779   -1.4215 C   0  0  0  0  0  3  0  0  0  0  0  0
    3.7081   -1.7514   -0.1516 C   0  0  0  0  0  3  0  0  0  0  0  0
    4.1808   -0.8858    0.2632 H   0  0  0  0  0  0  0  0  0  0  0  0
    2.3497   -1.4447   -0.4728 C   0  0  0  0  0  3  0  0  0  0  0  0
    1.8584   -1.1188    0.4202 H   0  0  0  0  0  0  0  0  0  0  0  0
    1.6155   -2.5450   -1.0129 C   0  0  0  0  0  3  0  0  0  0  0  0
    1.6150   -3.3525   -0.3108 H   0  0  0  0  0  0  0  0  0  0  0  0
    2.2710   -3.0036   -2.3177 C   0  0  0  0  0  3  0  0  0  0  0  0
    1.7477   -3.8542   -2.7017 H   0  0  0  0  0  0  0  0  0  0  0  0
    3.7298   -3.3808   -2.0415 C   0  0  0  0  0  3  0  0  0  0  0  0
    3.7787   -4.5555   -1.0781 C   0  0  0  0  0  0  0  0  0  0  0  0
    4.9384   -5.0484   -0.7000 N   0  0  0  0  0  0  0  0  0  0  0  0
    4.9856   -6.1844    0.2318 C   0  0  0  0  0  3  0  0  0  0  0  0
    3.6479   -6.9279    0.2409 C   0  0  0  0  0  3  0  0  0  0  0  0
    2.8654   -6.2512    0.5140 H   0  0  0  0  0  0  0  0  0  0  0  0
    3.3882   -7.4561   -1.0615 C   0  0  0  0  0  3  0  0  0  0  0  0
    2.4360   -7.9437   -1.0427 H   0  0  0  0  0  0  0  0  0  0  0  0
    4.3645   -8.3954   -1.5151 C   0  0  0  0  0  3  0  0  0  0  0  0
    4.4158   -9.2156   -0.8299 H   0  0  0  0  0  0  0  0  0  0  0  0
    5.7312   -7.7112   -1.5952 C   0  0  0  0  0  3  0  0  0  0  0  0
    6.4714   -8.4237   -1.8941 H   0  0  0  0  0  0  0  0  0  0  0  0
    6.0912   -7.1451   -0.2180 C   0  0  1  0  0  0  0  0  0  0  0  0
    6.1796   -7.9453    0.4867 H   0  0  0  0  0  0  0  0  0  0  0  0
    4.4602    1.4099   -1.8335 Co  0  0  0  0  0  0  0  0  0  0  0  0
    6.7901    1.4045   -1.8124 P   0  0  0  0  0  0  0  0  0  0  0  0
    6.8058    2.5399   -3.2474 C   0  0  0  0  0  0  0  0  0  0  0  0
    5.9333    3.1588   -3.2221 H   0  0  0  0  0  0  0  0  0  0  0  0
    7.6805    3.1548   -3.2062 H   0  0  0  0  0  0  0  0  0  0  0  0
    6.8126    1.9701   -4.1530 H   0  0  0  0  0  0  0  0  0  0  0  0
    6.7763    2.0796   -0.1115 C   0  0  0  0  0  0  0  0  0  0  0  0
    5.8972    1.7444    0.3981 H   0  0  0  0  0  0  0  0  0  0  0  0
    7.6444    1.7404    0.4140 H   0  0  0  0  0  0  0  0  0  0  0  0
    6.7791    3.1488   -0.1522 H   0  0  0  0  0  0  0  0  0  0  0  0
    6.7884   -0.4061   -2.0782 C   0  0  0  0  0  0  0  0  0  0  0  0
    7.3005   -0.6333   -2.9898 H   0  0  0  0  0  0  0  0  0  0  0  0
    7.2843   -0.8870   -1.2611 H   0  0  0  0  0  0  0  0  0  0  0  0
    5.7792   -0.7567   -2.1391 H   0  0  0  0  0  0  0  0  0  0  0  0
    4.4819    2.1868   -4.0300 P   0  0  0  0  0  0  0  0  0  0  0  0
    3.0864    1.0752   -4.4370 C   0  0  0  0  0  0  0  0  0  0  0  0
    2.4800    0.9309   -3.5673 H   0  0  0  0  0  0  0  0  0  0  0  0
    2.4962    1.5135   -5.2145 H   0  0  0  0  0  0  0  0  0  0  0  0
    3.4668    0.1312   -4.7671 H   0  0  0  0  0  0  0  0  0  0  0  0
    4.1547    3.8853   -3.4325 C   0  0  0  0  0  0  0  0  0  0  0  0
    4.5790    4.0085   -2.4580 H   0  0  0  0  0  0  0  0  0  0  0  0
    4.5953    4.5911   -4.1052 H   0  0  0  0  0  0  0  0  0  0  0  0
    3.0984    4.0493   -3.3849 H   0  0  0  0  0  0  0  0  0  0  0  0
    6.2048    1.5999   -4.2206 C   0  0  0  0  0  0  0  0  0  0  0  0
    6.2508    0.8792   -5.0101 H   0  0  0  0  0  0  0  0  0  0  0  0
    6.8397    2.4283   -4.4564 H   0  0  0  0  0  0  0  0  0  0  0  0
    6.5312    1.1492   -3.3067 H   0  0  0  0  0  0  0  0  0  0  0  0
    2.1223    0.6256   -2.3115 C   0  0  0  0  0  3  0  0  0  0  0  0
    2.5206    1.3185   -3.0230 H   0  0  0  0  0  0  0  0  0  0  0  0
    2.5757    1.0202   -0.9024 C   0  0  0  0  0  3  0  0  0  0  0  0
    3.6445    1.0560   -0.8665 H   0  0  0  0  0  0  0  0  0  0  0  0
    5.8421   -0.7900   -2.5979 H   0  0  0  0  0  0  0  0  0  0  0  0
    8.1701    1.4013   -1.7999 H   0  0  0  0  0  0  0  0  0  0  0  0
    4.4948    2.6469   -5.3310 H   0  0  0  0  0  0  0  0  0  0  0  0
  1  2  1  0  0  0  0
  2  3  1  0  0  0  0
  2 72  1  0  0  0  0
  3  4  1  0  0  0  0
  3  5  1  0  0  0  0
  5  6  1  0  0  0  0
  5  7  1  0  0  0  0
  7  8  1  0  0  0  0
  7 70  1  0  0  0  0
  8  9  1  0  0  0  0
  8 20  1  0  0  0  0
  8 43  1  0  0  0  0
  8 74  1  0  0  0  0
  9 10  1  0  0  0  0
  9 18  1  0  0  0  0
 10 11  1  0  0  0  0
 10 12  1  0  0  0  0
 12 13  1  0  0  0  0
 12 14  1  0  0  0  0
 14 15  1  0  0  0  0
 14 16  1  0  0  0  0
 16 17  1  0  0  0  0
 16 18  1  0  0  0  0
 18 19  1  0  0  0  0
 20 21  1  0  0  0  0
 20 29  1  0  0  0  0
 21 22  1  0  0  0  0
 21 23  1  0  0  0  0
 23 24  1  0  0  0  0
 23 25  1  0  0  0  0
 25 26  1  0  0  0  0
 25 27  1  0  0  0  0
 27 28  1  0  0  0  0
 27 29  1  0  0  0  0
 29 30  1  0  0  0  0
 30 31  2  0  0  0  0
 30 43  1  0  0  0  0
 31 32  1  0  0  0  0
 32 33  1  0  0  0  0
 32 41  1  0  0  0  0
 33 34  1  0  0  0  0
 33 35  1  0  0  0  0
 35 36  1  0  0  0  0
 35 37  1  0  0  0  0
 37 38  1  0  0  0  0
 37 39  1  0  0  0  0
 39 40  1  0  0  0  0
 39 41  1  0  0  0  0
 41 42  1  1  0  0  0
 41 43  1  0  0  0  0
 42 43  1  0  0  0  0
 43 44  1  0  0  0  0
 43 57  1  0  0  0  0
 44 45  1  0  0  0  0
 44 49  1  0  0  0  0
 44 53  1  0  0  0  0
 44 75  1  0  0  0  0
 45 46  1  0  0  0  0
 45 47  1  0  0  0  0
 45 48  1  0  0  0  0
 49 50  1  0  0  0  0
 49 51  1  0  0  0  0
 49 52  1  0  0  0  0
 53 54  1  0  0  0  0
 53 55  1  0  0  0  0
 53 56  1  0  0  0  0
 57 58  1  0  0  0  0
 57 62  1  0  0  0  0
 57 66  1  0  0  0  0
 57 76  1  0  0  0  0
 58 59  1  0  0  0  0
 58 60  1  0  0  0  0
 58 61  1  0  0  0  0
 62 63  1  0  0  0  0
 62 64  1  0  0  0  0
 62 65  1  0  0  0  0
 66 67  1  0  0  0  0
 66 68  1  0  0  0  0
 66 69  1  0  0  0  0
 70 71  1  0  0  0  0
 70 72  1  0  0  0  0
 72 73  1  0  0  0  0
M  END
$$$$
