
 OpenBabel09252518213D

114121  0  0  0  0  0  0  0  0999 V2000
    0.9379   -0.0501   -0.0603 C   0  0  0  0  0  0  0  0  0  0  0  0
    0.4646    0.5572   -1.2535 O   0  0  0  0  0  0  0  0  0  0  0  0
    1.4472    0.5182   -2.1700 C   0  0  0  0  0  0  0  0  0  0  0  0
    1.4765    1.7702   -2.9207 C   0  0  0  0  0  0  0  0  0  0  0  0
    0.9634    2.8339   -1.9210 O   0  0  0  0  0  0  0  0  0  0  0  0
    0.1957    3.8321   -2.5773 C   0  0  0  0  0  0  0  0  0  0  0  0
    0.0928    1.9879   -0.9794 Eu  0  0  0  0  0  0  0  0  0  0  0  0
    1.9232    3.8003   -0.2044 N   0  0  0  0  0  0  0  0  0  0  0  0
    3.0955    3.8474   -0.7999 C   0  0  0  0  0  0  0  0  0  0  0  0
    4.5388    3.9053   -1.5331 S   0  0  0  0  0  0  0  0  0  0  0  0
   -1.8028    2.7253    0.7810 N   0  0  0  0  0  0  0  0  0  0  0  0
   -2.5400    1.7036    1.5383 C   0  0  0  0  0  0  0  0  0  0  0  0
   -1.8325    0.9090    2.3124 C   0  0  0  0  0  0  0  0  0  0  0  0
   -2.5085    0.0133    3.1337 C   0  0  0  0  0  0  0  0  0  0  0  0
   -3.8420    0.3425    3.4641 C   0  0  0  0  0  0  0  0  0  0  0  0
   -4.5845    0.9808    2.4722 C   0  0  0  0  0  0  0  0  0  0  0  0
   -3.9379    1.6414    1.5352 C   0  0  0  0  0  0  0  0  0  0  0  0
   -4.7187    2.3447    0.4370 C   0  0  0  0  0  0  0  0  0  0  0  0
   -5.5458    1.3253   -0.3292 C   0  0  0  0  0  0  0  0  0  0  0  0
   -5.6405    3.3828    1.0559 C   0  0  0  0  0  0  0  0  0  0  0  0
   -0.3136    0.9687    2.3090 C   0  0  0  0  0  0  0  0  0  0  0  0
    0.1828    1.3192    3.7022 C   0  0  0  0  0  0  0  0  0  0  0  0
    0.2456   -0.3834    1.8972 C   0  0  0  0  0  0  0  0  0  0  0  0
   -2.1014    4.1500    0.9858 C   0  0  0  0  0  0  0  0  0  0  0  0
   -1.9791    4.8570    2.1047 C   0  0  0  0  0  0  0  0  0  0  0  0
   -1.3329    4.0083    0.0797 N   0  0  0  0  0  0  0  0  0  0  0  0
   -2.8001    3.9285    0.1236 C   0  0  0  0  0  0  0  0  0  0  0  0
   -3.3790    2.9482    0.7832 C   0  0  0  0  0  0  0  0  0  0  0  0
   -4.7686    2.9037    0.8151 C   0  0  0  0  0  0  0  0  0  0  0  0
   -5.4445    4.1251    0.5977 C   0  0  0  0  0  0  0  0  0  0  0  0
   -4.8570    5.0027   -0.3118 C   0  0  0  0  0  0  0  0  0  0  0  0
   -3.5645    4.8965   -0.5371 C   0  0  0  0  0  0  0  0  0  0  0  0
   -2.8947    5.8361   -1.5265 C   0  0  0  0  0  0  0  0  0  0  0  0
   -3.5274    5.6628   -2.8977 C   0  0  0  0  0  0  0  0  0  0  0  0
   -3.0752    7.2724   -1.0630 C   0  0  0  0  0  0  0  0  0  0  0  0
   -2.5495    1.8904    1.4927 C   0  0  0  0  0  0  0  0  0  0  0  0
   -2.8719    1.9058    2.9780 C   0  0  0  0  0  0  0  0  0  0  0  0
   -2.8749    0.5215    0.9177 C   0  0  0  0  0  0  0  0  0  0  0  0
   -2.3589    6.2543    1.8635 C   0  0  0  0  0  0  0  0  0  0  0  0
   -2.4403    7.4936    2.6596 C   0  0  0  0  0  0  0  0  0  0  0  0
   -2.8434    8.6096    2.0770 C   0  0  0  0  0  0  0  0  0  0  0  0
   -3.2187    8.6637    0.6469 C   0  0  0  0  0  0  0  0  0  0  0  0
   -3.1462    7.5617   -0.0605 C   0  0  0  0  0  0  0  0  0  0  0  0
   -3.4770    7.4228   -1.4891 C   0  0  0  0  0  0  0  0  0  0  0  0
   -3.3479    6.2335   -2.0482 C   0  0  0  0  0  0  0  0  0  0  0  0
   -2.8925    5.0287   -1.3352 C   0  0  0  0  0  0  0  0  0  0  0  0
   -2.5713    5.0648   -0.0662 C   0  0  0  0  0  0  0  0  0  0  0  0
   -2.6973    6.3519    0.6181 C   0  0  0  0  0  0  0  0  0  0  0  0
    0.3203    2.3605    0.4591 O   0  0  0  0  0  0  0  0  0  0  0  0
    1.3192    3.3668    0.5355 C   0  0  0  0  0  0  0  0  0  0  0  0
   -0.8253    2.8249    0.9869 C   0  0  0  0  0  0  0  0  0  0  0  0
   -1.9602    2.3680    0.1909 C   0  0  0  0  0  0  0  0  0  0  0  0
   -1.4024    2.2392   -1.2467 O   0  0  0  0  0  0  0  0  0  0  0  0
   -1.9954    1.1488   -1.9364 C   0  0  0  0  0  0  0  0  0  0  0  0
    0.5813   -1.0575   -0.0071 H   0  0  0  0  0  0  0  0  0  0  0  0
    0.5813    0.4997    0.7855 H   0  0  0  0  0  0  0  0  0  0  0  0
    2.0079   -0.0501   -0.0603 H   0  0  0  0  0  0  0  0  0  0  0  0
    1.2678   -0.2928   -2.8445 H   0  0  0  0  0  0  0  0  0  0  0  0
    2.3866    0.3779   -1.6773 H   0  0  0  0  0  0  0  0  0  0  0  0
    2.4535    1.9989   -3.2921 H   0  0  0  0  0  0  0  0  0  0  0  0
    0.8350    1.7138   -3.7752 H   0  0  0  0  0  0  0  0  0  0  0  0
   -0.5760    3.3666   -3.1542 H   0  0  0  0  0  0  0  0  0  0  0  0
   -0.2452    4.4796   -1.8484 H   0  0  0  0  0  0  0  0  0  0  0  0
    0.8297    4.4021   -3.2238 H   0  0  0  0  0  0  0  0  0  0  0  0
   -2.0428   -0.8790    3.4966 H   0  0  0  0  0  0  0  0  0  0  0  0
   -4.2590    0.1145    4.4228 H   0  0  0  0  0  0  0  0  0  0  0  0
   -5.6535    0.9350    2.4724 H   0  0  0  0  0  0  0  0  0  0  0  0
   -4.0373    2.8268   -0.2325 H   0  0  0  0  0  0  0  0  0  0  0  0
   -6.2273    0.8432    0.3403 H   0  0  0  0  0  0  0  0  0  0  0  0
   -6.0955    1.8204   -1.1023 H   0  0  0  0  0  0  0  0  0  0  0  0
   -4.8969    0.5945   -0.7649 H   0  0  0  0  0  0  0  0  0  0  0  0
   -5.0583    4.1005    1.5952 H   0  0  0  0  0  0  0  0  0  0  0  0
   -6.1901    3.8780    0.2828 H   0  0  0  0  0  0  0  0  0  0  0  0
   -6.3219    2.9008    1.7254 H   0  0  0  0  0  0  0  0  0  0  0  0
    0.0124    1.7157    1.6158 H   0  0  0  0  0  0  0  0  0  0  0  0
   -0.1433    0.5722    4.3955 H   0  0  0  0  0  0  0  0  0  0  0  0
    1.2519    1.3612    3.6999 H   0  0  0  0  0  0  0  0  0  0  0  0
   -0.2109    2.2710    3.9922 H   0  0  0  0  0  0  0  0  0  0  0  0
   -0.1038   -0.6301    0.9164 H   0  0  0  0  0  0  0  0  0  0  0  0
    1.3148   -0.3414    1.8948 H   0  0  0  0  0  0  0  0  0  0  0  0
   -0.0804   -1.1304    2.5904 H   0  0  0  0  0  0  0  0  0  0  0  0
   -5.2984    1.9917    0.9950 H   0  0  0  0  0  0  0  0  0  0  0  0
   -6.3570    4.3632    1.1032 H   0  0  0  0  0  0  0  0  0  0  0  0
   -5.4420    5.7444   -0.8143 H   0  0  0  0  0  0  0  0  0  0  0  0
   -1.8508    5.6083   -1.5840 H   0  0  0  0  0  0  0  0  0  0  0  0
   -4.5713    5.8906   -2.8402 H   0  0  0  0  0  0  0  0  0  0  0  0
   -3.0559    6.3243   -3.5942 H   0  0  0  0  0  0  0  0  0  0  0  0
   -3.4004    4.6518   -3.2239 H   0  0  0  0  0  0  0  0  0  0  0  0
   -2.6298    7.3943   -0.0978 H   0  0  0  0  0  0  0  0  0  0  0  0
   -2.6037    7.9338   -1.7595 H   0  0  0  0  0  0  0  0  0  0  0  0
   -4.1191    7.5001   -1.0055 H   0  0  0  0  0  0  0  0  0  0  0  0
   -1.5095    2.0986    1.3513 H   0  0  0  0  0  0  0  0  0  0  0  0
   -3.9119    1.6976    3.1194 H   0  0  0  0  0  0  0  0  0  0  0  0
   -2.2879    1.1612    3.4775 H   0  0  0  0  0  0  0  0  0  0  0  0
   -2.6428    2.8694    3.3828 H   0  0  0  0  0  0  0  0  0  0  0  0
   -2.6480    0.5107   -0.1279 H   0  0  0  0  0  0  0  0  0  0  0  0
   -2.2910   -0.2231    1.4172 H   0  0  0  0  0  0  0  0  0  0  0  0
   -3.9149    0.3133    1.0592 H   0  0  0  0  0  0  0  0  0  0  0  0
   -2.1761    7.4892    3.6965 H   0  0  0  0  0  0  0  0  0  0  0  0
   -2.9002    9.5050    2.6600 H   0  0  0  0  0  0  0  0  0  0  0  0
   -3.5419    9.5806    0.2001 H   0  0  0  0  0  0  0  0  0  0  0  0
   -3.8131    8.2637   -2.0590 H   0  0  0  0  0  0  0  0  0  0  0  0
   -3.5899    6.1394   -3.0862 H   0  0  0  0  0  0  0  0  0  0  0  0
   -2.8223    4.1023   -1.8660 H   0  0  0  0  0  0  0  0  0  0  0  0
    0.9990    4.2294   -0.0107 H   0  0  0  0  0  0  0  0  0  0  0  0
    1.4803    3.6325    1.5594 H   0  0  0  0  0  0  0  0  0  0  0  0
    2.2311    2.9969    0.1153 H   0  0  0  0  0  0  0  0  0  0  0  0
   -0.8042    3.8947    0.9886 H   0  0  0  0  0  0  0  0  0  0  0  0
   -0.9264    2.4636    1.9890 H   0  0  0  0  0  0  0  0  0  0  0  0
   -2.7907    3.0404    0.2450 H   0  0  0  0  0  0  0  0  0  0  0  0
   -2.3136    1.4221    0.5450 H   0  0  0  0  0  0  0  0  0  0  0  0
   -1.7907    0.2400   -1.4100 H   0  0  0  0  0  0  0  0  0  0  0  0
   -3.0535    1.2967   -1.9947 H   0  0  0  0  0  0  0  0  0  0  0  0
   -1.5888    1.0881   -2.9243 H   0  0  0  0  0  0  0  0  0  0  0  0
  1  2  1  0  0  0  0
  1 55  1  0  0  0  0
  1 56  1  0  0  0  0
  1 57  1  0  0  0  0
  2  3  1  0  0  0  0
  2  7  1  0  0  0  0
  3  4  1  0  0  0  0
  3 58  1  0  0  0  0
  3 59  1  0  0  0  0
  4  5  1  0  0  0  0
  4 60  1  0  0  0  0
  4 61  1  0  0  0  0
  5  6  1  0  0  0  0
  5  7  1  0  0  0  0
  6 62  1  0  0  0  0
  6 63  1  0  0  0  0
  6 64  1  0  0  0  0
  7  8  1  0  0  0  0
  7 11  1  0  0  0  0
  7 26  1  0  0  0  0
  7 49  1  0  0  0  0
  7 53  1  0  0  0  0
  8  9  2  0  0  0  0
  9 10  2  0  0  0  0
 11 12  1  0  0  0  0
 11 24  1  0  0  0  0
 12 13  1  0  0  0  0
 12 17  2  0  0  0  0
 13 14  2  0  0  0  0
 13 21  1  0  0  0  0
 14 15  1  0  0  0  0
 14 65  1  0  0  0  0
 15 16  2  0  0  0  0
 15 66  1  0  0  0  0
 16 17  1  0  0  0  0
 16 67  1  0  0  0  0
 17 18  1  0  0  0  0
 18 19  1  0  0  0  0
 18 20  1  0  0  0  0
 18 68  1  0  0  0  0
 19 69  1  0  0  0  0
 19 70  1  0  0  0  0
 19 71  1  0  0  0  0
 20 72  1  0  0  0  0
 20 73  1  0  0  0  0
 20 74  1  0  0  0  0
 21 22  1  0  0  0  0
 21 23  1  0  0  0  0
 21 75  1  0  0  0  0
 22 76  1  0  0  0  0
 22 77  1  0  0  0  0
 22 78  1  0  0  0  0
 23 79  1  0  0  0  0
 23 80  1  0  0  0  0
 23 81  1  0  0  0  0
 24 25  2  0  0  0  0
 24 47  1  0  0  0  0
 25 26  1  0  0  0  0
 25 39  1  0  0  0  0
 26 27  1  0  0  0  0
 27 28  1  0  0  0  0
 27 32  2  0  0  0  0
 28 29  2  0  0  0  0
 28 36  1  0  0  0  0
 29 30  1  0  0  0  0
 29 82  1  0  0  0  0
 30 31  2  0  0  0  0
 30 83  1  0  0  0  0
 31 32  1  0  0  0  0
 31 84  1  0  0  0  0
 32 33  1  0  0  0  0
 33 34  1  0  0  0  0
 33 35  1  0  0  0  0
 33 85  1  0  0  0  0
 34 86  1  0  0  0  0
 34 87  1  0  0  0  0
 34 88  1  0  0  0  0
 35 89  1  0  0  0  0
 35 90  1  0  0  0  0
 35 91  1  0  0  0  0
 36 37  1  0  0  0  0
 36 38  1  0  0  0  0
 36 92  1  0  0  0  0
 37 93  1  0  0  0  0
 37 94  1  0  0  0  0
 37 95  1  0  0  0  0
 38 96  1  0  0  0  0
 38 97  1  0  0  0  0
 38 98  1  0  0  0  0
 39 40  1  0  0  0  0
 39 48  2  0  0  0  0
 40 41  2  0  0  0  0
 40 99  1  0  0  0  0
 41 42  1  0  0  0  0
 41100  1  0  0  0  0
 42 43  2  0  0  0  0
 42101  1  0  0  0  0
 43 44  1  0  0  0  0
 43 48  1  0  0  0  0
 44 45  2  0  0  0  0
 44102  1  0  0  0  0
 45 46  1  0  0  0  0
 45103  1  0  0  0  0
 46 47  2  0  0  0  0
 46104  1  0  0  0  0
 47 48  1  0  0  0  0
 49 50  1  0  0  0  0
 49 51  1  0  0  0  0
 50105  1  0  0  0  0
 50106  1  0  0  0  0
 50107  1  0  0  0  0
 51 52  1  0  0  0  0
 51108  1  0  0  0  0
 51109  1  0  0  0  0
 52 53  1  0  0  0  0
 52110  1  0  0  0  0
 52111  1  0  0  0  0
 53 54  1  0  0  0  0
 54112  1  0  0  0  0
 54113  1  0  0  0  0
 54114  1  0  0  0  0
M  END
$$$$
