
 OpenBabel09252516033D

 73 77  0  0  0  0  0  0  0  0999 V2000
    1.0288    0.0123   -0.0950 Cl  0  0  0  0  0  0  0  0  0  0  0  0
    3.4588    0.0123   -0.0950 Ir  0  0  0  0  0  0  0  0  0  0  0  0
    3.4588    1.4620    0.0960 N   0  0  0  0  0  0  0  0  0  0  0  0
    2.8599    2.0416    1.1945 C   0  0  0  0  0  0  0  0  0  0  0  0
    2.2435    1.2657    2.1713 C   0  0  0  0  0  0  0  0  0  0  0  0
    2.2228   -0.2367    2.0508 C   0  0  0  0  0  0  0  0  0  0  0  0
    3.4588   -0.6885    1.2657 P   0  0  0  0  0  4  0  0  0  0  0  0
    3.4205   -2.5032    1.0326 C   0  0  0  0  0  0  0  0  0  0  0  0
    4.6478   -2.9393    0.2490 C   0  0  0  0  0  0  0  0  0  0  0  0
    3.4158   -3.1883    2.3894 C   0  0  0  0  0  0  0  0  0  0  0  0
    4.9733   -0.2396    2.1896 C   0  0  0  0  0  0  0  0  0  0  0  0
    5.0214    1.2674    2.3822 C   0  0  0  0  0  0  0  0  0  0  0  0
    4.9603   -0.9237    3.5469 C   0  0  0  0  0  0  0  0  0  0  0  0
    1.6477    1.8683    3.2587 C   0  0  0  0  0  0  0  0  0  0  0  0
    1.6564    3.2498    3.3936 C   0  0  0  0  0  0  0  0  0  0  0  0
    2.2578    4.0328    2.4521 C   0  0  0  0  0  0  0  0  0  0  0  0
    2.8727    3.4441    1.3364 C   0  0  0  0  0  0  0  0  0  0  0  0
    3.4670    4.2233    0.4128 C   0  0  0  0  0  0  0  0  0  0  0  0
    4.0453    3.7069   -0.6331 C   0  0  0  0  0  0  0  0  0  0  0  0
    4.7096    4.6116   -1.6582 C   0  0  0  0  0  0  0  0  0  0  0  0
    4.6999    5.9605   -1.4827 C   0  0  0  0  0  0  0  0  0  0  0  0
    3.2453    0.6944   -2.5951 C   0  0  0  0  0  0  0  0  0  0  0  0
    3.3792    1.9746   -2.1547 C   0  0  0  0  0  0  0  0  0  0  0  0
    6.5488   -1.0382    1.2737 C   0  0  0  0  0  0  0  0  0  0  0  0
    5.9388    0.0123   -0.0950 P   0  0  0  0  0  4  0  0  0  0  0  0
    6.5488   -0.6478   -1.6890 C   0  0  0  0  0  0  0  0  0  0  0  0
    6.0421    0.2247   -2.8259 C   0  0  0  0  0  0  0  0  0  0  0  0
    8.0688   -0.6478   -1.6891 C   0  0  0  0  0  0  0  0  0  0  0  0
    6.5488    1.7228    0.1304 C   0  0  0  0  0  0  0  0  0  0  0  0
    6.0421    2.5953   -1.0065 C   0  0  0  0  0  0  0  0  0  0  0  0
    6.0421    2.2711    1.4544 C   0  0  0  0  0  0  0  0  0  0  0  0
    4.0560    2.2532   -0.8225 C   0  0  0  0  0  3  0  0  0  0  0  0
    3.4588   -1.6930   -0.3196 H   0  0  0  0  0  0  0  0  0  0  0  0
    3.4588    0.7998   -1.6241 H   0  0  0  0  0  0  0  0  0  0  0  0
    1.3353   -0.5473    1.5401 H   0  0  0  0  0  0  0  0  0  0  0  0
    2.2369   -0.6755    3.0265 H   0  0  0  0  0  0  0  0  0  0  0  0
    2.5375   -2.7749    0.4927 H   0  0  0  0  0  0  0  0  0  0  0  0
    5.5308   -2.6676    0.7888 H   0  0  0  0  0  0  0  0  0  0  0  0
    4.6254   -4.0004    0.1126 H   0  0  0  0  0  0  0  0  0  0  0  0
    4.6511   -2.4570   -0.7062 H   0  0  0  0  0  0  0  0  0  0  0  0
    2.5519   -2.8813    2.9410 H   0  0  0  0  0  0  0  0  0  0  0  0
    3.3935   -4.2494    2.2531 H   0  0  0  0  0  0  0  0  0  0  0  0
    4.2988   -2.9166    2.9292 H   0  0  0  0  0  0  0  0  0  0  0  0
    5.8342   -0.5564    1.6388 H   0  0  0  0  0  0  0  0  0  0  0  0
    4.1605    1.5842    2.9330 H   0  0  0  0  0  0  0  0  0  0  0  0
    5.9069    1.5298    2.9224 H   0  0  0  0  0  0  0  0  0  0  0  0
    5.0306    1.7489    1.4267 H   0  0  0  0  0  0  0  0  0  0  0  0
    4.9264   -1.9845    3.4113 H   0  0  0  0  0  0  0  0  0  0  0  0
    5.8458   -0.6613    4.0871 H   0  0  0  0  0  0  0  0  0  0  0  0
    4.0994   -0.6069    4.0977 H   0  0  0  0  0  0  0  0  0  0  0  0
    1.1743    1.2656    4.0054 H   0  0  0  0  0  0  0  0  0  0  0  0
    1.1881    3.7037    4.2419 H   0  0  0  0  0  0  0  0  0  0  0  0
    2.2608    5.0969    2.5646 H   0  0  0  0  0  0  0  0  0  0  0  0
    3.4640    5.2856    0.5408 H   0  0  0  0  0  0  0  0  0  0  0  0
    5.1850    4.1873   -2.5179 H   0  0  0  0  0  0  0  0  0  0  0  0
    4.2245    6.3848   -0.6230 H   0  0  0  0  0  0  0  0  0  0  0  0
    2.7689    0.4984   -3.5329 H   0  0  0  0  0  0  0  0  0  0  0  0
    7.6188   -1.0382    1.2737 H   0  0  0  0  0  0  0  0  0  0  0  0
    6.1921   -0.6522    2.2058 H   0  0  0  0  0  0  0  0  0  0  0  0
    6.1921   -1.6480   -1.8208 H   0  0  0  0  0  0  0  0  0  0  0  0
    6.3988    1.2248   -2.6941 H   0  0  0  0  0  0  0  0  0  0  0  0
    6.3988   -0.1613   -3.7580 H   0  0  0  0  0  0  0  0  0  0  0  0
    4.9721    0.2247   -2.8259 H   0  0  0  0  0  0  0  0  0  0  0  0
    8.4254   -1.2620   -0.8888 H   0  0  0  0  0  0  0  0  0  0  0  0
    8.4254   -1.0338   -2.6211 H   0  0  0  0  0  0  0  0  0  0  0  0
    8.4254    0.3523   -1.5573 H   0  0  0  0  0  0  0  0  0  0  0  0
    7.6188    1.7228    0.1304 H   0  0  0  0  0  0  0  0  0  0  0  0
    4.9721    2.5953   -1.0065 H   0  0  0  0  0  0  0  0  0  0  0  0
    6.3988    3.5955   -0.8747 H   0  0  0  0  0  0  0  0  0  0  0  0
    6.3988    2.2094   -1.9385 H   0  0  0  0  0  0  0  0  0  0  0  0
    6.3988    1.6569    2.2547 H   0  0  0  0  0  0  0  0  0  0  0  0
    6.3988    3.2713    1.5862 H   0  0  0  0  0  0  0  0  0  0  0  0
    4.9721    2.2711    1.4544 H   0  0  0  0  0  0  0  0  0  0  0  0
  1  2  1  0  0  0  0
  2  3  1  0  0  0  0
  2  7  1  0  0  0  0
  2 25  1  0  0  0  0
  2 33  1  0  0  0  0
  2 34  1  0  0  0  0
  3  4  1  0  0  0  0
  3 32  1  0  0  0  0
  4  5  1  0  0  0  0
  4 17  2  0  0  0  0
  5  6  1  0  0  0  0
  5 14  2  0  0  0  0
  6  7  1  0  0  0  0
  6 35  1  0  0  0  0
  6 36  1  0  0  0  0
  7  8  1  0  0  0  0
  7 11  1  0  0  0  0
  8  9  1  0  0  0  0
  8 10  1  0  0  0  0
  8 37  1  0  0  0  0
  9 38  1  0  0  0  0
  9 39  1  0  0  0  0
  9 40  1  0  0  0  0
 10 41  1  0  0  0  0
 10 42  1  0  0  0  0
 10 43  1  0  0  0  0
 11 12  1  0  0  0  0
 11 13  1  0  0  0  0
 11 44  1  0  0  0  0
 12 45  1  0  0  0  0
 12 46  1  0  0  0  0
 12 47  1  0  0  0  0
 13 48  1  0  0  0  0
 13 49  1  0  0  0  0
 13 50  1  0  0  0  0
 14 15  1  0  0  0  0
 14 51  1  0  0  0  0
 15 16  2  0  0  0  0
 15 52  1  0  0  0  0
 16 17  1  0  0  0  0
 16 53  1  0  0  0  0
 17 18  1  0  0  0  0
 18 19  2  0  0  0  0
 18 54  1  0  0  0  0
 19 20  1  0  0  0  0
 19 32  1  0  0  0  0
 20 21  2  0  0  0  0
 20 55  1  0  0  0  0
 21 22  1  0  0  0  0
 21 56  1  0  0  0  0
 22 23  2  0  0  0  0
 22 57  1  0  0  0  0
 23 24  1  0  0  0  0
 23 32  1  0  0  0  0
 24 25  1  0  0  0  0
 24 58  1  0  0  0  0
 24 59  1  0  0  0  0
 25 26  1  0  0  0  0
 25 29  1  0  0  0  0
 26 27  1  0  0  0  0
 26 28  1  0  0  0  0
 26 60  1  0  0  0  0
 27 61  1  0  0  0  0
 27 62  1  0  0  0  0
 27 63  1  0  0  0  0
 28 64  1  0  0  0  0
 28 65  1  0  0  0  0
 28 66  1  0  0  0  0
 29 30  1  0  0  0  0
 29 31  1  0  0  0  0
 29 67  1  0  0  0  0
 30 68  1  0  0  0  0
 30 69  1  0  0  0  0
 30 70  1  0  0  0  0
 31 71  1  0  0  0  0
 31 72  1  0  0  0  0
 31 73  1  0  0  0  0
M  END
$$$$
