
 OpenBabel09252513253D

 49 54  0  0  1  0  0  0  0  0999 V2000
    1.0166    0.0843   -0.0511 H   0  0  0  0  0  0  0  0  0  0  0  0
    2.0866    0.0843   -0.0511 C   0  0  0  0  0  3  0  0  0  0  0  0
    2.5933    1.0198   -1.1367 C   0  0  0  0  0  3  0  0  0  0  0  0
    2.2366    2.0109   -0.9485 H   0  0  0  0  0  0  0  0  0  0  0  0
    4.1133    1.0198   -1.1367 C   0  0  0  0  0  3  0  0  0  0  0  0
    4.6715    0.8363   -2.5715 C   0  0  0  0  0  3  0  0  0  0  0  0
    3.8099    1.5724   -3.5845 C   0  0  0  0  0  3  0  0  0  0  0  0
    2.5933   -1.3236   -0.3185 C   0  0  0  0  0  3  0  0  0  0  0  0
    2.2366   -1.9821    0.4457 H   0  0  0  0  0  0  0  0  0  0  0  0
    2.4270    0.9430   -3.6259 C   0  0  0  0  0  0  0  0  0  0  0  0
    1.9755    1.0100   -2.6581 H   0  0  0  0  0  0  0  0  0  0  0  0
    1.8205    1.4612   -4.3390 H   0  0  0  0  0  0  0  0  0  0  0  0
    7.2750    2.5959   -4.3498 P   0  0  0  0  0  0  0  0  0  0  0  0
    8.7347    2.8148   -3.2681 C   0  0  0  0  0  0  0  0  0  0  0  0
    8.7921    1.8147   -2.3932 F   0  0  0  0  0  0  0  0  0  0  0  0
    9.8390    2.8194   -4.0092 F   0  0  0  0  0  0  0  0  0  0  0  0
    8.6338    3.9694   -2.6156 F   0  0  0  0  0  0  0  0  0  0  0  0
    7.1195    1.0942   -5.3841 C   0  0  0  0  0  0  0  0  0  0  0  0
    6.4371    1.3849   -6.4881 F   0  0  0  0  0  0  0  0  0  0  0  0
    8.3311    0.6560   -5.7143 F   0  0  0  0  0  0  0  0  0  0  0  0
    6.4775    0.1504   -4.7016 F   0  0  0  0  0  0  0  0  0  0  0  0
    6.0795    1.4487   -2.5045 Ir  0  0  0  0  0  0  0  0  0  0  0  0
    7.1196    0.3774   -2.3113 C   0  0  0  0  0  0  0  0  0  0  0  0
    7.7711    0.6512   -3.1147 H   0  0  0  0  0  0  0  0  0  0  0  0
    7.1836   -0.3078   -1.4920 H   0  0  0  0  0  0  0  0  0  0  0  0
    7.9544    0.4458   -3.3663 C   0  0  1  0  0  0  0  0  0  0  0  0
    7.9810    1.4762   -3.0793 H   0  0  0  0  0  0  0  0  0  0  0  0
    7.5406    1.5070   -4.2812 C   0  0  2  0  0  0  0  0  0  0  0  0
    8.7867    1.0688   -5.0333 C   0  0  0  0  0  0  0  0  0  0  0  0
    9.6441    1.1917   -4.4051 H   0  0  0  0  0  0  0  0  0  0  0  0
    8.6924    0.0398   -5.3108 H   0  0  0  0  0  0  0  0  0  0  0  0
    8.9008    1.6666   -5.9134 H   0  0  0  0  0  0  0  0  0  0  0  0
    6.4259    2.1351   -3.7989 C   0  0  0  0  0  0  0  0  0  0  0  0
    5.6719    1.8305   -3.1035 H   0  0  0  0  0  0  0  0  0  0  0  0
    5.9036    2.9520   -4.2515 H   0  0  0  0  0  0  0  0  0  0  0  0
    6.0891    2.4403   -1.3365 P   0  0  0  0  0  0  0  0  0  0  0  0
    5.5848    1.1916   -2.5755 C   0  0  0  0  0  0  0  0  0  0  0  0
    4.2869    1.3229   -2.8344 F   0  0  0  0  0  0  0  0  0  0  0  0
    6.2805    1.3714   -3.6947 F   0  0  0  0  0  0  0  0  0  0  0  0
    5.8205   -0.0272   -2.0979 F   0  0  0  0  0  0  0  0  0  0  0  0
    5.8889    4.2227   -1.6999 C   0  0  0  0  0  0  0  0  0  0  0  0
    5.0826    4.7717   -0.7958 F   0  0  0  0  0  0  0  0  0  0  0  0
    7.0763    4.8202   -1.6560 F   0  0  0  0  0  0  0  0  0  0  0  0
    5.3622    4.3715   -2.9121 F   0  0  0  0  0  0  0  0  0  0  0  0
    4.6713    2.4058   -0.7247 C   0  0  0  0  0  0  0  0  0  0  0  0
    4.0576    3.2129   -1.0665 H   0  0  0  0  0  0  0  0  0  0  0  0
    4.7153    2.4958    0.3406 H   0  0  0  0  0  0  0  0  0  0  0  0
    7.9402    3.2343   -5.3767 H   0  0  0  0  0  0  0  0  0  0  0  0
    6.6203    2.0379   -0.1280 H   0  0  0  0  0  0  0  0  0  0  0  0
  1  2  1  0  0  0  0
  2  3  1  0  0  0  0
  2  8  1  0  0  0  0
  3  4  1  0  0  0  0
  3  5  1  0  0  0  0
  5  6  1  0  0  0  0
  5 45  1  0  0  0  0
  6  7  1  0  0  0  0
  6 22  1  0  0  0  0
  7  8  1  0  0  0  0
  7 10  1  0  0  0  0
  8  9  1  0  0  0  0
 10 11  1  0  0  0  0
 10 12  1  0  0  0  0
 10 13  1  0  0  0  0
 13 14  1  0  0  0  0
 13 18  1  0  0  0  0
 13 22  1  0  0  0  0
 13 48  1  0  0  0  0
 14 15  1  0  0  0  0
 14 16  1  0  0  0  0
 14 17  1  0  0  0  0
 18 19  1  0  0  0  0
 18 20  1  0  0  0  0
 18 21  1  0  0  0  0
 22 23  1  0  0  0  0
 22 26  1  0  0  0  0
 22 28  1  0  0  0  0
 22 33  1  0  0  0  0
 22 36  1  0  0  0  0
 23 24  1  0  0  0  0
 23 25  1  0  0  0  0
 23 26  2  0  0  0  0
 26 27  1  1  0  0  0
 26 28  1  0  0  0  0
 28 29  1  1  0  0  0
 28 33  2  0  0  0  0
 29 30  1  0  0  0  0
 29 31  1  0  0  0  0
 29 32  1  0  0  0  0
 33 34  1  0  0  0  0
 33 35  1  0  0  0  0
 36 37  1  0  0  0  0
 36 41  1  0  0  0  0
 36 45  1  0  0  0  0
 36 49  1  0  0  0  0
 37 38  1  0  0  0  0
 37 39  1  0  0  0  0
 37 40  1  0  0  0  0
 41 42  1  0  0  0  0
 41 43  1  0  0  0  0
 41 44  1  0  0  0  0
 45 46  1  0  0  0  0
 45 47  1  0  0  0  0
M  END
$$$$
