
  --CCDC--092525    3D                              

 55 54  0  0  0  0  0  0  0  0999 V2000
    2.4377    0.2040    1.5421 H      0
    2.5154    1.2873    1.5264 C      0
    3.2918    1.5516    0.8115 H      0
    2.8566    1.6152    2.5050 H      0
    1.2038    1.9680    1.1459 C      0
    1.1128    1.8873    0.0595 H      0
    1.3698    3.0359    1.3344 H      0
   -0.3150    1.5276    2.0963 P      0
    0.4795    1.6613    3.7482 C      0
    1.3857    1.0481    3.7486 H      0
    0.8080    2.6990    3.8847 H      0
   -0.2605    1.2219    5.0100 C      0
   -0.7052    0.2381    4.8821 H      0
   -1.0479    1.9051    5.3043 H      0
    0.4361    1.1601    5.8434 H      0
   -1.5493    2.8989    2.1781 C      0
   -2.5597    2.6415    1.8464 H      0
   -1.1906    3.7016    1.5201 H      0
   -1.7411    3.5861    3.5208 C      0
   -2.3227    4.4965    3.3921 H      0
   -0.7918    3.8620    3.9742 H      0
   -2.2941    2.9491    4.2051 H      0
   -1.0810    0.3095    1.3313 O      0
   -1.3465    1.7174   -0.2570 I      0
    0.0732   -1.0628    2.4904 I      0
   -1.9250    0.3829    2.4612 C      0
   -2.5711    0.4446    3.4132 O      0
   -0.1945   -0.2430    0.3840 C      0
   -0.0537    0.4283   -0.4592 H      0
   -0.5163   -1.1837   -0.0297 H      0
    0.7659   -0.4619    0.8353 H      0
   -2.4379   -0.4397    0.7635 P      0
   -2.6555   -0.6792   -1.0483 C      0
   -3.1361    0.2106   -1.4736 H      0
   -1.6900   -0.8033   -1.5524 H      0
   -3.5409   -1.8507   -1.4698 C      0
   -3.8987   -1.6978   -2.4858 H      0
   -4.4089   -1.9630   -0.8273 H      0
   -3.0140   -2.7978   -1.4589 H      0
   -2.4056   -2.2143    1.2579 C      0
   -3.4076   -2.5761    0.9967 H      0
   -2.3611   -2.2956    2.3507 H      0
   -1.4693   -3.2545    0.6322 C      0
   -1.9655   -4.2218    0.5877 H      0
   -0.5518   -3.3965    1.1932 H      0
   -1.1797   -2.9803   -0.3779 H      0
   -3.8124    0.7956    0.7474 C      0
   -3.6772    1.6052    0.0252 H      0
   -3.9687    1.2716    1.7215 H      0
   -5.1627    0.1894    0.3998 C      0
   -5.2707    0.0657   -0.6741 H      0
   -5.9664    0.8429    0.7327 H      0
   -5.2933   -0.7780    0.8802 H      0
   -0.3499    0.3560    2.8605 H      0
   -3.4232   -0.7074    1.7193 H      0
  1  2  1
  2  3  1
  2  4  1
  2  5  1
  5  6  1
  5  7  1
  5  8  1
  8  9  1
  9 10  1
  9 11  1
  9 12  1
 12 13  1
 12 14  1
 12 15  1
  8 16  1
 16 17  1
 16 18  1
 16 19  1
 19 20  1
 19 21  1
 19 22  1
  8 23  1
 23 24  1
 23 25  1
 23 26  1
 26 27  3
 23 28  1
 28 29  1
 28 30  1
 28 31  1
 23 32  1
 32 33  1
 33 34  1
 33 35  1
 33 36  1
 36 37  1
 36 38  1
 36 39  1
 32 40  1
 40 41  1
 40 42  1
 40 43  1
 43 44  1
 43 45  1
 43 46  1
 32 47  1
 47 48  1
 47 49  1
 47 50  1
 50 51  1
 50 52  1
 50 53  1
  8 54  1
 32 55  1
M  END
$$$$
