
     RDKit          3D

 29 30  0  0  0  0  0  0  0  0999 V2000
   -0.2250    4.4579   -0.0931 Cl  0  0  0  0  0  0  0  0  0  0  0  0
    0.4845    2.8634   -0.0624 Au  0  0  0  0  0  3  0  0  0  0  0  0
    0.1758    0.9344   -0.1144 C   0  0  0  0  0  0  0  0  0  0  0  0
   -1.1884    0.5373   -0.2244 N   0  0  0  0  0  0  0  0  0  0  0  0
   -2.3944    1.3363   -0.0736 C   0  0  0  0  0  0  0  0  0  0  0  0
   -3.1654    0.4580    0.9067 C   0  0  0  0  0  0  0  0  0  0  0  0
   -3.0258   -0.8946    0.2331 C   0  0  0  0  0  0  0  0  0  0  0  0
   -1.7134   -0.7842   -0.5187 C   0  0  0  0  0  0  0  0  0  0  0  0
    1.1662   -0.0854   -0.0538 N   0  0  0  0  0  0  0  0  0  0  0  0
    2.0219   -0.4022    1.0953 C   0  0  0  0  0  0  0  0  0  0  0  0
    3.4164   -0.3618    0.4842 C   0  0  0  0  0  0  0  0  0  0  0  0
    3.1588   -0.7380   -0.9784 C   0  0  0  0  0  0  0  0  0  0  0  0
    1.6690   -1.1009   -0.9904 C   0  0  0  0  0  0  0  0  0  0  0  0
   -2.9968    1.3444   -1.0080 H   0  0  0  0  0  0  0  0  0  0  0  0
   -2.2060    2.3361    0.3414 H   0  0  0  0  0  0  0  0  0  0  0  0
   -4.2175    0.7614    1.0101 H   0  0  0  0  0  0  0  0  0  0  0  0
   -2.6080    0.5202    1.8552 H   0  0  0  0  0  0  0  0  0  0  0  0
   -3.0205   -1.6692    1.0150 H   0  0  0  0  0  0  0  0  0  0  0  0
   -3.8860   -1.0533   -0.4568 H   0  0  0  0  0  0  0  0  0  0  0  0
   -1.0108   -1.6043   -0.2715 H   0  0  0  0  0  0  0  0  0  0  0  0
   -1.9561   -0.7932   -1.5948 H   0  0  0  0  0  0  0  0  0  0  0  0
    1.9877    0.3503    1.8834 H   0  0  0  0  0  0  0  0  0  0  0  0
    1.7859   -1.3897    1.4984 H   0  0  0  0  0  0  0  0  0  0  0  0
    3.8607    0.6526    0.5079 H   0  0  0  0  0  0  0  0  0  0  0  0
    4.0959   -1.0763    0.9609 H   0  0  0  0  0  0  0  0  0  0  0  0
    3.2787    0.1222   -1.6446 H   0  0  0  0  0  0  0  0  0  0  0  0
    3.7537   -1.6147   -1.2400 H   0  0  0  0  0  0  0  0  0  0  0  0
    1.5314   -2.0760   -0.4831 H   0  0  0  0  0  0  0  0  0  0  0  0
    1.2275   -1.0307   -1.9835 H   0  0  0  0  0  0  0  0  0  0  0  0
  1  2  1  0
  2  3  2  3
  3  4  1  0
  4  5  1  0
  5  6  1  0
  6  7  1  0
  7  8  1  0
  3  9  1  0
  9 10  1  0
 10 11  1  0
 11 12  1  0
 12 13  1  0
  8  4  1  0
 13  9  1  0
  5 14  1  0
  5 15  1  0
  6 16  1  0
  6 17  1  0
  7 18  1  0
  7 19  1  0
  8 20  1  0
  8 21  1  0
 10 22  1  0
 10 23  1  0
 11 24  1  0
 11 25  1  0
 12 26  1  0
 12 27  1  0
 13 28  1  0
 13 29  1  0
M  END
