
     RDKit          3D

 62 63  0  0  0  0  0  0  0  0999 V2000
   -1.5137   -2.1555    1.8881 C   0  0  0  0  0  0  0  0  0  0  0  0
   -1.6044   -1.1677    0.1371 Pt  0  0  0  0  0  6  0  0  0  0  0  0
   -3.2853   -1.4313    0.2352 C   0  0  0  0  0  0  0  0  0  0  0  0
   -1.0373   -2.8338   -0.7648 C   0  0  0  0  0  0  0  0  0  0  0  0
    0.1903   -0.6034    0.0652 N   0  0  0  0  0  0  0  0  0  0  0  0
    0.9219    0.0822   -0.8350 N   0  0  0  0  0  0  0  0  0  0  0  0
    2.1608    0.2649   -0.5900 C   0  0  0  0  0  0  0  0  0  0  0  0
    2.8874    1.0396   -1.6276 C   0  0  0  0  0  0  0  0  0  0  0  0
    3.9466    1.8309   -0.8940 C   0  0  0  0  0  0  0  0  0  0  0  0
    5.0014    0.9291   -0.3030 C   0  0  0  0  0  0  0  0  0  0  0  0
    5.1272    1.2103    1.1552 C   0  0  0  0  0  0  0  0  0  0  0  0
    3.9372    0.7997    1.9730 C   0  0  0  0  0  0  0  0  0  0  0  0
    3.4839   -0.5571    1.5229 C   0  0  0  0  0  0  0  0  0  0  0  0
    2.3742   -0.3214    0.5700 C   0  0  0  0  0  0  0  0  0  0  0  0
    1.2331   -0.7998    0.9054 N   0  0  0  0  0  0  0  0  0  0  0  0
   -1.8314    0.6321    1.0701 P   0  0  0  0  0  4  0  0  0  0  0  0
   -0.8132    0.8261    2.6400 C   0  0  0  0  0  0  0  0  0  0  0  0
   -3.4096    0.8802    1.8764 C   0  0  0  0  0  0  0  0  0  0  0  0
   -1.4534    2.1413    0.2038 C   0  0  0  0  0  0  0  0  0  0  0  0
   -2.1784   -0.4914   -1.7008 P   0  0  0  0  0  4  0  0  0  0  0  0
   -3.0973   -1.7237   -2.7933 C   0  0  0  0  0  0  0  0  0  0  0  0
   -3.2119    0.9352   -1.8597 C   0  0  0  0  0  0  0  0  0  0  0  0
   -0.7782   -0.1485   -2.7838 C   0  0  0  0  0  0  0  0  0  0  0  0
   -1.8595   -3.1683    1.9001 H   0  0  0  0  0  0  0  0  0  0  0  0
   -0.4653   -2.2343    2.1703 H   0  0  0  0  0  0  0  0  0  0  0  0
   -1.9479   -1.6496    2.7040 H   0  0  0  0  0  0  0  0  0  0  0  0
   -4.1515   -0.7739   -0.0970 H   0  0  0  0  0  0  0  0  0  0  0  0
   -3.8880   -1.4590    1.2342 H   0  0  0  0  0  0  0  0  0  0  0  0
   -3.7568   -2.4255   -0.0803 H   0  0  0  0  0  0  0  0  0  0  0  0
   -0.2615   -3.4095   -0.2162 H   0  0  0  0  0  0  0  0  0  0  0  0
   -0.5550   -2.7315   -1.7056 H   0  0  0  0  0  0  0  0  0  0  0  0
   -1.8310   -3.5386   -0.8517 H   0  0  0  0  0  0  0  0  0  0  0  0
    2.2165    1.7937   -2.0951 H   0  0  0  0  0  0  0  0  0  0  0  0
    3.3690    0.4395   -2.3973 H   0  0  0  0  0  0  0  0  0  0  0  0
    3.4632    2.5062   -0.1779 H   0  0  0  0  0  0  0  0  0  0  0  0
    4.4294    2.4579   -1.6688 H   0  0  0  0  0  0  0  0  0  0  0  0
    6.0107    1.1084   -0.7522 H   0  0  0  0  0  0  0  0  0  0  0  0
    4.7733   -0.1230   -0.5196 H   0  0  0  0  0  0  0  0  0  0  0  0
    5.9907    0.5854    1.5178 H   0  0  0  0  0  0  0  0  0  0  0  0
    5.4137    2.2693    1.3109 H   0  0  0  0  0  0  0  0  0  0  0  0
    4.2990    0.7516    3.0343 H   0  0  0  0  0  0  0  0  0  0  0  0
    3.1290    1.5401    1.9746 H   0  0  0  0  0  0  0  0  0  0  0  0
    3.0867   -1.0586    2.4546 H   0  0  0  0  0  0  0  0  0  0  0  0
    4.2575   -1.2155    1.1284 H   0  0  0  0  0  0  0  0  0  0  0  0
   -1.1374    0.0880    3.3831 H   0  0  0  0  0  0  0  0  0  0  0  0
    0.2602    0.7734    2.3833 H   0  0  0  0  0  0  0  0  0  0  0  0
   -1.0234    1.8245    2.9602 H   0  0  0  0  0  0  0  0  0  0  0  0
   -3.5472    0.1562    2.7324 H   0  0  0  0  0  0  0  0  0  0  0  0
   -3.4117    1.9055    2.1946 H   0  0  0  0  0  0  0  0  0  0  0  0
   -4.2719    0.7698    1.1867 H   0  0  0  0  0  0  0  0  0  0  0  0
   -0.5027    2.6654    0.5728 H   0  0  0  0  0  0  0  0  0  0  0  0
   -1.1851    1.9197   -0.8389 H   0  0  0  0  0  0  0  0  0  0  0  0
   -2.2276    2.9145    0.2559 H   0  0  0  0  0  0  0  0  0  0  0  0
   -2.4542   -2.6147   -2.8479 H   0  0  0  0  0  0  0  0  0  0  0  0
   -4.0230   -1.9548   -2.2441 H   0  0  0  0  0  0  0  0  0  0  0  0
   -3.2194   -1.1779   -3.7074 H   0  0  0  0  0  0  0  0  0  0  0  0
   -4.2104    0.7710   -2.3617 H   0  0  0  0  0  0  0  0  0  0  0  0
   -2.7998    1.7874   -2.4605 H   0  0  0  0  0  0  0  0  0  0  0  0
   -3.5153    1.4118   -0.9065 H   0  0  0  0  0  0  0  0  0  0  0  0
   -1.1418   -0.1533   -3.8170 H   0  0  0  0  0  0  0  0  0  0  0  0
   -0.3466    0.8630   -2.6828 H   0  0  0  0  0  0  0  0  0  0  0  0
   -0.0144   -0.9523   -2.7599 H   0  0  0  0  0  0  0  0  0  0  0  0
  1  2  1  0
  2  3  1  0
  2  4  1  0
  2  5  1  0
  5  6  1  0
  6  7  2  0
  7  8  1  0
  8  9  1  0
  9 10  1  0
 10 11  1  0
 11 12  1  0
 12 13  1  0
 13 14  1  0
 14 15  2  0
  2 16  1  0
 16 17  1  0
 16 18  1  0
 16 19  1  0
  2 20  1  0
 20 21  1  0
 20 22  1  0
 20 23  1  0
 15  5  1  0
 14  7  1  0
  1 24  1  0
  1 25  1  0
  1 26  1  0
  3 27  1  0
  3 28  1  0
  3 29  1  0
  4 30  1  0
  4 31  1  0
  4 32  1  0
  8 33  1  0
  8 34  1  0
  9 35  1  0
  9 36  1  0
 10 37  1  0
 10 38  1  0
 11 39  1  0
 11 40  1  0
 12 41  1  0
 12 42  1  0
 13 43  1  0
 13 44  1  0
 17 45  1  0
 17 46  1  0
 17 47  1  0
 18 48  1  0
 18 49  1  0
 18 50  1  0
 19 51  1  0
 19 52  1  0
 19 53  1  0
 21 54  1  0
 21 55  1  0
 21 56  1  0
 22 57  1  0
 22 58  1  0
 22 59  1  0
 23 60  1  0
 23 61  1  0
 23 62  1  0
M  RAD  2  16   2  20   2
M  END
