
 OpenBabel09252518073D

 32 34  0  0  0  0  0  0  0  0999 V2000
    0.9055    0.0221    0.0242 C   0  0  0  0  0  0  0  0  0  0  0  0
    0.3988   -0.5859    1.3219 C   0  0  0  0  0  0  0  0  0  0  0  0
    0.9055    0.2339    2.4973 C   0  0  0  0  0  0  0  0  0  0  0  0
    0.0215    0.8255    3.3454 C   0  0  0  0  0  0  0  0  0  0  0  0
   -1.1212   -0.5859    1.3219 C   0  0  0  0  0  0  0  0  0  0  0  0
   -1.6112   -1.3788    0.1852 N   0  0  0  0  0  0  0  0  0  0  0  0
   -1.3041   -1.0447   -1.0019 N   0  0  0  0  0  0  0  0  0  0  0  0
   -0.5735   -0.0251   -1.2063 N   0  0  0  0  0  2  0  0  0  0  0  0
   -1.6278   -1.1939    2.6196 C   0  0  0  0  0  0  0  0  0  0  0  0
   -1.5078   -2.4748    2.9261 C   0  0  0  0  0  0  0  0  0  0  0  0
   -1.9729   -2.6020    4.3317 C   0  0  0  0  0  0  0  0  0  0  0  0
   -2.3145   -1.3822    4.7118 C   0  0  0  0  0  0  0  0  0  0  0  0
   -2.8462   -0.9984    6.0830 C   0  0  0  0  0  0  0  0  0  0  0  0
   -2.1140   -0.5388    3.6863 Fe  0  0  0  0  0  0  0  0  0  0  0  0
   -2.9147   -1.7601    2.2052 C   0  0  0  0  0  0  0  0  0  0  0  0
   -3.3836   -2.4753    1.3378 O   0  0  0  0  0  0  0  0  0  0  0  0
   -2.8784   -1.3580    1.9339 C   0  0  0  0  0  0  0  0  0  0  0  0
   -3.3260   -1.8377    0.9076 O   0  0  0  0  0  0  0  0  0  0  0  0
   -3.0221   -1.2335    1.9487 C   0  0  0  0  0  0  0  0  0  0  0  0
   -3.5539   -1.6403    0.9312 O   0  0  0  0  0  0  0  0  0  0  0  0
    0.5489    1.0272   -0.0619 H   0  0  0  0  0  0  0  0  0  0  0  0
    0.5489   -0.5551   -0.8032 H   0  0  0  0  0  0  0  0  0  0  0  0
    1.9755    0.0221    0.0242 H   0  0  0  0  0  0  0  0  0  0  0  0
    0.7555   -1.5910    1.4080 H   0  0  0  0  0  0  0  0  0  0  0  0
    1.9575    0.3458    2.6577 H   0  0  0  0  0  0  0  0  0  0  0  0
    0.3781    1.4026    4.1728 H   0  0  0  0  0  0  0  0  0  0  0  0
   -1.0305    0.7136    3.1850 H   0  0  0  0  0  0  0  0  0  0  0  0
   -1.4778    0.4192    1.2358 H   0  0  0  0  0  0  0  0  0  0  0  0
   -1.6441   -1.5949   -1.7907 H   0  0  0  0  0  0  0  0  0  0  0  0
   -2.1884   -0.2849    6.5337 H   0  0  0  0  0  0  0  0  0  0  0  0
   -3.8211   -0.5696    5.9803 H   0  0  0  0  0  0  0  0  0  0  0  0
   -2.9034   -1.8705    6.7004 H   0  0  0  0  0  0  0  0  0  0  0  0
  1  2  1  0  0  0  0
  1 21  1  0  0  0  0
  1 22  1  0  0  0  0
  1 23  1  0  0  0  0
  2  3  1  0  0  0  0
  2  5  1  0  0  0  0
  2 24  1  0  0  0  0
  3  4  2  0  0  0  0
  3 25  1  0  0  0  0
  4 26  1  0  0  0  0
  4 27  1  0  0  0  0
  5  6  1  0  0  0  0
  5  9  1  0  0  0  0
  5 28  1  0  0  0  0
  6  7  2  0  0  0  0
  7  8  2  0  0  0  0
  7 29  1  0  0  0  0
  9 10  2  0  0  0  0
  9 14  1  0  0  0  0
 10 11  1  0  0  0  0
 10 14  1  0  0  0  0
 11 12  2  0  0  0  0
 11 14  1  0  0  0  0
 12 13  1  0  0  0  0
 12 14  1  0  0  0  0
 13 30  1  0  0  0  0
 13 31  1  0  0  0  0
 13 32  1  0  0  0  0
 14 15  1  0  0  0  0
 14 17  1  0  0  0  0
 14 19  1  0  0  0  0
 15 16  3  0  0  0  0
 17 18  3  0  0  0  0
 19 20  3  0  0  0  0
M  END
$$$$
