
 OpenBabel09252518533D

 46 54  0  0  0  0  0  0  0  0999 V2000
    0.9606   -0.0860   -0.0325 Cl  0  0  0  0  0  0  0  0  0  0  0  0
    3.3906   -0.0860   -0.0325 Ir  0  0  0  0  0  0  0  0  0  0  0  0
    2.8276    1.1469   -0.4296 C   0  0  0  0  0  0  0  0  0  0  0  0
    3.3772    2.3248   -0.0443 C   0  0  0  0  0  0  0  0  0  0  0  0
    4.5360    2.3695    0.7615 C   0  0  0  0  0  0  0  0  0  0  0  0
    5.0959    3.5943    1.1503 C   0  0  0  0  0  0  0  0  0  0  0  0
    6.2283    3.6288    1.9354 C   0  0  0  0  0  0  0  0  0  0  0  0
    6.8458    2.4600    2.3629 C   0  0  0  0  0  0  0  0  0  0  0  0
    6.3076    1.2050    1.9893 C   0  0  0  0  0  0  0  0  0  0  0  0
    6.8965    0.0024    2.3982 C   0  0  0  0  0  0  0  0  0  0  0  0
    6.3457   -1.2037    2.0169 C   0  0  0  0  0  0  0  0  0  0  0  0
    5.2083   -1.2541    1.2284 C   0  0  0  0  0  0  0  0  0  0  0  0
    4.5992   -0.0764    0.8055 C   0  0  0  0  0  0  0  0  0  0  0  0
    5.1473    1.1665    1.1848 C   0  0  0  0  0  0  0  0  0  0  0  0
    1.5360   -0.2682    1.0793 C   0  0  0  0  0  0  0  0  0  0  0  0
    0.5813   -1.1069    0.2454 C   0  0  0  0  0  0  0  0  0  0  0  0
    1.4319   -0.3994    2.4117 C   0  0  0  0  0  0  0  0  0  0  0  0
    2.0526    0.8152    3.0823 C   0  0  0  0  0  0  0  0  0  0  0  0
    0.1446   -0.4968    2.7810 C   0  0  0  0  0  0  0  0  0  0  0  0
   -0.3576   -0.6657    4.2057 C   0  0  0  0  0  0  0  0  0  0  0  0
   -0.6143   -0.4215    1.7004 C   0  0  0  0  0  0  0  0  0  0  0  0
   -2.1321   -0.4771    1.6414 C   0  0  0  0  0  0  0  0  0  0  0  0
    0.3215   -0.2715    0.5559 C   0  0  0  0  0  0  0  0  0  0  0  0
   -0.0425   -0.1472   -0.9146 C   0  0  0  0  0  0  0  0  0  0  0  0
    1.9523    1.1513   -1.0450 H   0  0  0  0  0  0  0  0  0  0  0  0
    4.6406    4.5099    0.8351 H   0  0  0  0  0  0  0  0  0  0  0  0
    6.6399    4.5742    2.2212 H   0  0  0  0  0  0  0  0  0  0  0  0
    7.7242    2.5081    2.9720 H   0  0  0  0  0  0  0  0  0  0  0  0
    7.7758    0.0187    3.0077 H   0  0  0  0  0  0  0  0  0  0  0  0
    6.8052   -2.1158    2.3360 H   0  0  0  0  0  0  0  0  0  0  0  0
    4.7972   -2.2001    0.9439 H   0  0  0  0  0  0  0  0  0  0  0  0
    0.4078   -0.6228   -0.6929 H   0  0  0  0  0  0  0  0  0  0  0  0
    1.0104   -2.0721    0.0747 H   0  0  0  0  0  0  0  0  0  0  0  0
   -0.3464   -1.2162    0.7673 H   0  0  0  0  0  0  0  0  0  0  0  0
    1.5250    1.6966    2.7827 H   0  0  0  0  0  0  0  0  0  0  0  0
    1.9907    0.7064    4.1450 H   0  0  0  0  0  0  0  0  0  0  0  0
    3.0790    0.8977    2.7914 H   0  0  0  0  0  0  0  0  0  0  0  0
    0.0403   -1.5686    4.6194 H   0  0  0  0  0  0  0  0  0  0  0  0
   -0.0401    0.1678    4.7969 H   0  0  0  0  0  0  0  0  0  0  0  0
   -1.4265   -0.7150    4.2036 H   0  0  0  0  0  0  0  0  0  0  0  0
   -2.4708   -1.4088    2.0440 H   0  0  0  0  0  0  0  0  0  0  0  0
   -2.5411    0.3288    2.2144 H   0  0  0  0  0  0  0  0  0  0  0  0
   -2.4529   -0.3903    0.6243 H   0  0  0  0  0  0  0  0  0  0  0  0
   -0.5791   -1.0196   -1.2242 H   0  0  0  0  0  0  0  0  0  0  0  0
   -0.6552    0.7181   -1.0585 H   0  0  0  0  0  0  0  0  0  0  0  0
    0.8506   -0.0527   -1.4964 H   0  0  0  0  0  0  0  0  0  0  0  0
  1  2  1  0  0  0  0
  2  3  1  0  0  0  0
  2  4  1  0  0  0  0
  2 13  1  0  0  0  0
  2 15  1  0  0  0  0
  2 17  1  0  0  0  0
  2 19  1  0  0  0  0
  2 21  1  0  0  0  0
  2 23  1  0  0  0  0
  3  4  2  0  0  0  0
  3 25  1  0  0  0  0
  4  5  1  0  0  0  0
  5  6  1  0  0  0  0
  5 14  2  0  0  0  0
  6  7  2  0  0  0  0
  6 26  1  0  0  0  0
  7  8  1  0  0  0  0
  7 27  1  0  0  0  0
  8  9  2  0  0  0  0
  8 28  1  0  0  0  0
  9 10  1  0  0  0  0
  9 14  1  0  0  0  0
 10 11  2  0  0  0  0
 10 29  1  0  0  0  0
 11 12  1  0  0  0  0
 11 30  1  0  0  0  0
 12 13  2  0  0  0  0
 12 31  1  0  0  0  0
 13 14  1  0  0  0  0
 15 16  1  0  0  0  0
 15 17  1  0  0  0  0
 15 23  2  0  0  0  0
 16 32  1  0  0  0  0
 16 33  1  0  0  0  0
 16 34  1  0  0  0  0
 17 18  1  0  0  0  0
 17 19  1  0  0  0  0
 18 35  1  0  0  0  0
 18 36  1  0  0  0  0
 18 37  1  0  0  0  0
 19 20  1  0  0  0  0
 19 21  2  0  0  0  0
 20 38  1  0  0  0  0
 20 39  1  0  0  0  0
 20 40  1  0  0  0  0
 21 22  1  0  0  0  0
 21 23  1  0  0  0  0
 22 41  1  0  0  0  0
 22 42  1  0  0  0  0
 22 43  1  0  0  0  0
 23 24  1  0  0  0  0
 24 44  1  0  0  0  0
 24 45  1  0  0  0  0
 24 46  1  0  0  0  0
M  END
$$$$
