
  --CCDC--092525    3D                              

 55 54  0  0  0  0  0  0  0  0999 V2000
   -0.9632    0.4982   -0.3505 H      0
   -0.2920    1.3420   -0.4937 C      0
   -0.5812    1.8440   -1.4146 H      0
    0.7084    0.9432   -0.6493 H      0
   -0.3291    2.3354    0.6765 C      0
   -1.0844    3.0805    0.3933 H      0
    0.6594    2.8085    0.6076 H      0
   -0.6466    1.8220    2.4305 P      0
   -2.3642    1.8753    1.7449 C      0
   -2.3478    1.4968    0.7242 H      0
   -2.7562    2.8937    1.6377 H      0
   -3.4011    0.9821    2.4233 C      0
   -4.3405    1.0191    1.8755 H      0
   -3.6033    1.2939    3.4447 H      0
   -3.0676   -0.0529    2.4447 H      0
    0.5320    0.4519    1.9963 C      0
   -0.0938   -0.1472    1.3257 H      0
    1.3308    0.8427    1.3516 H      0
    1.1352   -0.7200    2.7774 C      0
    1.9454   -0.4269    3.4388 H      0
    1.5656   -1.4280    2.0729 H      0
    0.3868   -1.2612    3.3500 H      0
   -0.2521    3.0477    3.5125 O      0
    1.7521    2.3368    3.3698 I      0
    0.7541    4.6944    4.4181 I      0
   -0.1751    3.9766    2.4567 C      0
   -0.0300    4.8156    1.6811 O      0
   -1.5745    3.5169    3.6066 C      0
   -2.3192    2.7600    3.5972 H      0
   -1.8301    4.1688    2.7790 H      0
   -1.7374    4.1264    4.4788 H      0
   -0.5050    2.3566    5.0225 P      0
   -2.1654    1.7092    5.5386 C      0
   -2.2864    0.7314    5.0557 H      0
   -2.9986    2.3327    5.1987 H      0
   -2.5297    1.5604    7.0172 C      0
   -3.2653    0.7680    7.1406 H      0
   -2.9763    2.4703    7.4052 H      0
   -1.6831    1.3332    7.6553 H      0
    0.0489    0.6148    5.1271 C      0
   -0.5439   -0.0187    4.4668 H      0
    1.1042    0.5604    4.8712 H      0
    0.0481   -0.0711    6.4848 C      0
   -0.8935   -0.5790    6.6721 H      0
    0.2335    0.6421    7.2859 H      0
    0.8288   -0.8282    6.5222 H      0
   -0.4021    3.4989    6.4753 C      0
    0.6060    3.9073    6.6131 H      0
   -0.4727    2.8369    7.3455 H      0
   -1.4406    4.5897    6.7563 C      0
   -1.1363    5.5525    6.3542 H      0
   -1.5738    4.7121    7.8293 H      0
   -2.4073    4.3542    6.3214 H      0
   -1.4187    0.8387    3.0519 H      0
    0.7719    2.2164    5.5776 H      0
  1  2  1
  2  3  1
  2  4  1
  2  5  1
  5  6  1
  5  7  1
  5  8  1
  8  9  1
  9 10  1
  9 11  1
  9 12  1
 12 13  1
 12 14  1
 12 15  1
  8 16  1
 16 17  1
 16 18  1
 16 19  1
 19 20  1
 19 21  1
 19 22  1
  8 23  1
 23 24  1
 23 25  1
 23 26  1
 26 27  3
 23 28  1
 28 29  1
 28 30  1
 28 31  1
 23 32  1
 32 33  1
 33 34  1
 33 35  1
 33 36  1
 36 37  1
 36 38  1
 36 39  1
 32 40  1
 40 41  1
 40 42  1
 40 43  1
 43 44  1
 43 45  1
 43 46  1
 32 47  1
 47 48  1
 47 49  1
 47 50  1
 50 51  1
 50 52  1
 50 53  1
  8 54  1
 32 55  1
M  END
$$$$
