
 OpenBabel09252515203D

 26 26  0  0  0  0  0  0  0  0999 V2000
    3.1104    0.0337    0.7152 H   0  0  0  0  0  0  0  0  0  0  0  0
    2.8385   -0.2615   -0.2924 C   0  0  0  0  0  3  0  0  0  0  0  0
    2.1241   -1.5180   -0.4934 C   0  0  0  0  0  3  0  0  0  0  0  0
    1.9303   -2.1564    0.3619 H   0  0  0  0  0  0  0  0  0  0  0  0
    1.8485   -1.9906   -1.8530 C   0  0  0  0  0  3  0  0  0  0  0  0
    1.5141   -3.3955   -2.0864 N   0  0  0  0  0  0  0  0  0  0  0  0
    1.4641   -4.1445   -1.1011 O   0  0  0  0  0  0  0  0  0  0  0  0
    1.3112   -3.7509   -3.2554 O   0  0  0  0  0  0  0  0  0  0  0  0
    2.1131   -1.1027   -2.9879 C   0  0  0  0  0  3  0  0  0  0  0  0
    1.9194   -1.4322   -4.0031 H   0  0  0  0  0  0  0  0  0  0  0  0
    2.8509    0.1381   -2.7792 C   0  0  0  0  0  3  0  0  0  0  0  0
    3.1980    0.7002   -3.6409 H   0  0  0  0  0  0  0  0  0  0  0  0
    3.3822    0.4657   -1.4486 C   0  0  0  0  0  3  0  0  0  0  0  0
    4.6689    1.2115   -1.3561 C   0  0  0  0  0  0  0  0  0  0  0  0
    5.4093    1.3878   -2.3137 O   0  0  0  0  0  0  0  0  0  0  0  0
    4.9205    1.5689   -0.0736 O   0  0  0  0  0  0  0  0  0  0  0  0
    6.2783    1.9429    0.2274 C   0  0  0  0  0  0  0  0  0  0  0  0
    6.9596    1.1993   -0.2050 H   0  0  0  0  0  0  0  0  0  0  0  0
    6.6158    3.3368   -0.2894 C   0  0  0  0  0  0  0  0  0  0  0  0
    5.8989    4.0779    0.0783 H   0  0  0  0  0  0  0  0  0  0  0  0
    7.6231    3.6334    0.0205 H   0  0  0  0  0  0  0  0  0  0  0  0
    6.5796    3.3781   -1.3819 H   0  0  0  0  0  0  0  0  0  0  0  0
    6.4119    1.8938    1.7460 C   0  0  0  0  0  0  0  0  0  0  0  0
    5.7535    2.6305    2.2203 H   0  0  0  0  0  0  0  0  0  0  0  0
    6.1090    0.9123    2.1270 H   0  0  0  0  0  0  0  0  0  0  0  0
    7.4409    2.0897    2.0618 H   0  0  0  0  0  0  0  0  0  0  0  0
  1  2  1  0  0  0  0
  2  3  1  0  0  0  0
  2 13  1  0  0  0  0
  3  4  1  0  0  0  0
  3  5  1  0  0  0  0
  5  6  1  0  0  0  0
  5  9  1  0  0  0  0
  6  7  2  0  0  0  0
  6  8  2  0  0  0  0
  9 10  1  0  0  0  0
  9 11  1  0  0  0  0
 11 12  1  0  0  0  0
 11 13  1  0  0  0  0
 13 14  1  0  0  0  0
 14 15  2  0  0  0  0
 14 16  1  0  0  0  0
 16 17  1  0  0  0  0
 17 18  1  0  0  0  0
 17 19  1  0  0  0  0
 17 23  1  0  0  0  0
 19 20  1  0  0  0  0
 19 21  1  0  0  0  0
 19 22  1  0  0  0  0
 23 24  1  0  0  0  0
 23 25  1  0  0  0  0
 23 26  1  0  0  0  0
M  END
$$$$
