
  --CCDC--092525    3D                              

 80 84  0  0  0  0  0  0  0  0999 V2000
   -0.1210    0.5231   -0.3006 Cl     0
    1.4056    2.4296   -0.1213 Ru     0
    1.0693    2.4969    1.9952 C      0
    2.2060    2.9632    2.8999 C      0
    2.0296    3.9405    3.8810 C      0
    2.7418    4.0068    5.0516 C      0
    3.6412    2.6649    4.6964 C      0
    4.0732    1.4019    3.7325 C      0
    3.0981    1.9384    2.9098 C      0
    3.7442    2.3453    1.6179 C      0
    5.2033    1.9071    1.7901 C      0
    3.4913    2.1079    0.2445 N      0
    4.2544    3.0009   -0.5526 C      0
    3.8331    0.7820   -0.1287 C      0
    0.5375    4.7074   -0.3580 Cl     0
    1.7634    2.3438   -2.2297 C      0
    2.1193    0.9928   -2.6979 N      0
    0.9957    0.4436   -3.4825 C      0
    0.3491    1.6617   -4.0873 C      0
    0.5278    2.6391   -2.9983 N      0
    0.1254    4.0001   -3.2009 C      0
   -1.2367    4.3087   -3.2018 C      0
   -2.3469    3.5773   -2.4862 C      0
   -1.5717    5.5015   -3.8355 C      0
   -0.7474    6.4830   -4.2435 C      0
   -1.1409    7.7342   -4.9895 C      0
    0.4496    6.2218   -3.6821 C      0
    1.0709    5.0108   -3.3917 C      0
    2.5738    5.1231   -3.3290 C      0
    3.4678    0.7425   -3.1260 C      0
    3.9863   -0.5303   -2.8805 C      0
    3.3652   -1.5698   -1.9816 C      0
    5.2066   -0.8239   -3.4820 C      0
    6.0737    0.2692   -3.6927 C      0
    7.5279    0.0127   -4.0041 C      0
    5.6100    1.5972   -3.5895 C      0
    4.2407    1.6736   -3.8249 C      0
    3.7897    2.6074   -4.9224 C      0
    0.0677    2.3221    2.3795 H      0
    1.2734    4.7040    3.7047 H      0
    2.7222    4.6895    5.8998 H      0
    4.3009    2.5533    5.5556 H      0
    4.7723    0.5670    3.7389 H      0
    3.7630    3.4292    1.7072 H      0
    5.8905    2.1122    0.9756 H      0
    5.2460    0.8344    1.9684 H      0
    5.6157    2.3823    2.6777 H      0
    3.6014    3.7565   -0.9836 H      0
    4.7279    2.4681   -1.3747 H      0
    5.0271    3.5347   -0.0048 H      0
    3.0863    0.2916   -0.7313 H      0
    4.7767    0.7576   -0.6701 H      0
    3.9495    0.1690    0.7629 H      0
    0.2961   -0.0874   -2.8387 H      0
    1.3571   -0.2292   -4.2587 H      0
   -0.7044    1.4906   -4.3033 H      0
    0.8595    1.9767   -4.9963 H      0
   -2.8046    2.8371   -3.1392 H      0
   -3.1212    4.2708   -2.1649 H      0
   -1.9657    3.0635   -1.6062 H      0
   -2.6309    5.6745   -3.9941 H      0
   -2.1830    7.9839   -4.8012 H      0
   -1.0128    7.6004   -6.0616 H      0
   -0.5286    8.5778   -4.6777 H      0
    1.0904    7.0901   -3.5732 H      0
    3.1919    4.6731   -4.0622 H      0
    2.7838    6.1832   -3.4548 H      0
    2.9854    4.9024   -2.3543 H      0
    3.3794   -2.5486   -2.4566 H      0
    2.3310   -1.3172   -1.7569 H      0
    3.9085   -1.6413   -1.0417 H      0
    5.5383   -1.8461   -3.6287 H      0
    7.8619   -0.9169   -3.5479 H      0
    8.1517    0.8195   -3.6251 H      0
    7.6851   -0.0613   -5.0782 H      0
    6.2698    2.4572   -3.5974 H      0
    2.7606    2.9233   -4.7703 H      0
    3.8464    2.1113   -5.8890 H      0
    4.4284    3.4861   -4.9632 H      0
    2.5472    3.0492   -2.5019 H      0
  1  2  1
  2  3  2
  3  4  1
  4  5  4
  5  6  4
  6  7  4
  7  8  4
  8  9  4
  4  9  4
  9 10  1
 10 11  1
 10 12  1
  2 12  1
 12 13  1
 12 14  1
  2 15  1
  2 16  1
 16 17  1
 17 18  1
 18 19  1
 19 20  1
 16 20  1
 20 21  1
 21 22  4
 22 23  1
 22 24  4
 24 25  4
 25 26  1
 25 27  4
 27 28  4
 21 28  4
 28 29  1
 17 30  1
 30 31  4
 31 32  1
 31 33  4
 33 34  4
 34 35  1
 34 36  4
 36 37  4
 30 37  4
 37 38  1
  3 39  1
  5 40  1
  6 41  1
  7 42  1
  8 43  1
 10 44  1
 11 45  1
 11 46  1
 11 47  1
 13 48  1
 13 49  1
 13 50  1
 14 51  1
 14 52  1
 14 53  1
 18 54  1
 18 55  1
 19 56  1
 19 57  1
 23 58  1
 23 59  1
 23 60  1
 24 61  1
 26 62  1
 26 63  1
 26 64  1
 27 65  1
 29 66  1
 29 67  1
 29 68  1
 32 69  1
 32 70  1
 32 71  1
 33 72  1
 35 73  1
 35 74  1
 35 75  1
 36 76  1
 38 77  1
 38 78  1
 38 79  1
 16 80  1
M  END
$$$$
