
 OpenBabel09252514293D

 35 38  0  0  0  0  0  0  0  0999 V2000
    1.0365   -0.0519   -0.4032 F   0  0  0  0  0  0  0  0  0  0  0  0
    2.3869   -0.1250   -0.2560 C   0  0  0  0  0  0  0  0  0  0  0  0
    2.8387   -0.8620   -1.3101 F   0  0  0  0  0  0  0  0  0  0  0  0
    2.8583    1.1370   -0.4636 F   0  0  0  0  0  0  0  0  0  0  0  0
    2.7967   -0.6998    1.0762 C   0  0  0  0  0  0  0  0  0  0  0  0
    2.9100   -2.0831    1.2631 C   0  0  0  0  0  0  0  0  0  0  0  0
    3.3125   -2.5968    2.4970 C   0  0  0  0  0  0  0  0  0  0  0  0
    3.6014   -1.7362    3.5597 C   0  0  0  0  0  0  0  0  0  0  0  0
    3.4312   -0.3598    3.4087 C   0  0  0  0  0  0  0  0  0  0  0  0
    3.0358    0.1488    2.1668 C   0  0  0  0  0  0  0  0  0  0  0  0
    3.6030    0.5211    4.5074 N   0  0  0  0  0  0  0  0  0  0  0  0
    4.9840    0.2054    5.5511 C   0  0  0  0  0  0  0  0  0  0  0  0
    5.2220    1.4481    6.7589 C   0  0  0  0  0  0  0  0  0  0  0  0
    5.0561    0.8221    8.4017 Cl  0  0  0  0  0  0  0  0  0  0  0  0
    5.7940    2.7785    6.8086 O   0  0  0  0  0  0  0  0  0  0  0  0
    5.0159    3.7141    5.9828 C   0  0  0  0  0  0  0  0  0  0  0  0
    5.9141    5.3663    5.6756 Br  0  0  0  0  0  0  0  0  0  0  0  0
    3.5017    3.9671    6.3266 C   0  0  0  0  0  0  0  0  0  0  0  0
    2.7933    2.6235    6.1034 C   0  0  0  0  0  0  0  0  0  0  0  0
    4.0081    1.8819    6.1691 C   0  0  0  0  0  0  0  0  0  0  0  0
    4.7533    2.7856    4.8757 C   0  0  0  0  0  0  0  0  0  0  0  0
    6.5633    2.3353    3.7477 I   0  0  0  0  0  0  0  0  0  0  0  0
    2.5210    1.6554    4.7413 C   0  0  0  0  0  0  0  0  0  0  0  0
    1.5596    1.8576    4.0104 O   0  0  0  0  0  0  0  0  0  0  0  0
    2.6816   -2.7659    0.4459 H   0  0  0  0  0  0  0  0  0  0  0  0
    3.3791   -3.6734    2.6377 H   0  0  0  0  0  0  0  0  0  0  0  0
    3.8698   -2.1704    4.5174 H   0  0  0  0  0  0  0  0  0  0  0  0
    2.9303    1.2241    2.0271 H   0  0  0  0  0  0  0  0  0  0  0  0
    4.7022   -0.7218    6.0691 H   0  0  0  0  0  0  0  0  0  0  0  0
    5.8541   -0.0095    4.9319 H   0  0  0  0  0  0  0  0  0  0  0  0
    3.0433    4.7308    5.6857 H   0  0  0  0  0  0  0  0  0  0  0  0
    3.4049    4.2784    7.3731 H   0  0  0  0  0  0  0  0  0  0  0  0
    2.0378    2.4015    6.8637 H   0  0  0  0  0  0  0  0  0  0  0  0
    3.4213    0.9677    6.4455 H   0  0  0  0  0  0  0  0  0  0  0  0
    4.0719    3.2239    4.1303 H   0  0  0  0  0  0  0  0  0  0  0  0
  1  2  1  0  0  0  0
  2  3  1  0  0  0  0
  2  4  1  0  0  0  0
  2  5  1  0  0  0  0
  5  6  1  0  0  0  0
  5 10  2  0  0  0  0
  6  7  2  0  0  0  0
  6 25  1  0  0  0  0
  7  8  1  0  0  0  0
  7 26  1  0  0  0  0
  8  9  2  0  0  0  0
  8 27  1  0  0  0  0
  9 10  1  0  0  0  0
  9 11  1  0  0  0  0
 10 28  1  0  0  0  0
 11 12  1  0  0  0  0
 11 23  1  0  0  0  0
 12 13  1  0  0  0  0
 12 29  1  0  0  0  0
 12 30  1  0  0  0  0
 13 14  1  0  0  0  0
 13 15  1  0  0  0  0
 13 20  1  0  0  0  0
 15 16  1  0  0  0  0
 16 17  1  0  0  0  0
 16 18  1  0  0  0  0
 16 21  1  0  0  0  0
 18 19  1  0  0  0  0
 18 31  1  0  0  0  0
 18 32  1  0  0  0  0
 19 20  1  0  0  0  0
 19 23  1  0  0  0  0
 19 33  1  0  0  0  0
 20 21  1  0  0  0  0
 20 34  1  0  0  0  0
 21 22  1  0  0  0  0
 21 35  1  0  0  0  0
 23 24  2  0  0  0  0
M  END
$$$$
