
     RDKit          3D

 64 65  0  0  0  0  0  0  0  0999 V2000
    2.9231    0.2188   -2.3172 C   0  0  0  0  0  0  0  0  0  0  0  0
    2.0799    0.0088   -1.1206 C   0  0  0  0  0  0  0  0  0  0  0  0
    0.8206    0.4753   -1.0317 N   0  0  0  0  0  0  0  0  0  0  0  0
    0.2822    0.1561    0.1354 N   0  0  0  0  0  0  0  0  0  0  0  0
   -1.4261    0.6069    0.6681 Pt  0  0  0  0  0  6  0  0  0  0  0  0
   -0.6179    0.8526    2.4284 C   0  0  0  0  0  0  0  0  0  0  0  0
   -0.8463    2.4294    0.3860 C   0  0  0  0  0  0  0  0  0  0  0  0
   -2.9361    1.4165    1.4128 C   0  0  0  0  0  0  0  0  0  0  0  0
   -1.8661   -1.1240    1.1123 P   0  0  0  0  0  5  0  0  0  0  0  0
   -3.4569   -1.7423    0.6063 C   0  0  0  0  0  0  0  0  0  0  0  0
   -1.0016   -2.4628    0.3726 C   0  0  0  0  0  0  0  0  0  0  0  0
   -2.3728   -1.2373    2.8626 C   0  0  0  0  0  0  0  0  0  0  0  0
   -2.0701    0.7996   -1.1488 P   0  0  0  0  0  5  0  0  0  0  0  0
   -3.8723    0.5572   -1.2059 C   0  0  0  0  0  0  0  0  0  0  0  0
   -2.2088    2.4849   -1.6599 C   0  0  0  0  0  0  0  0  0  0  0  0
   -1.5365   -0.5212   -2.1490 C   0  0  0  0  0  0  0  0  0  0  0  0
    1.1995   -0.5212    0.8054 N   0  0  0  0  0  0  0  0  0  0  0  0
    2.3207   -0.6345    0.0687 C   0  0  0  0  0  0  0  0  0  0  0  0
    3.3560   -1.3908    0.8072 C   0  0  0  0  0  0  0  0  0  0  0  0
    4.4854   -1.7053   -0.1671 C   0  0  0  0  0  0  0  0  0  0  0  0
    5.2941   -0.4568   -0.3027 C   0  0  0  0  0  0  0  0  0  0  0  0
    5.3606    0.1015   -1.6940 C   0  0  0  0  0  0  0  0  0  0  0  0
    4.1828    0.9774   -2.0457 C   0  0  0  0  0  0  0  0  0  0  0  0
    3.1000   -0.7175   -2.8835 H   0  0  0  0  0  0  0  0  0  0  0  0
    2.3128    0.8565   -3.0167 H   0  0  0  0  0  0  0  0  0  0  0  0
    0.2437    1.5716    2.3204 H   0  0  0  0  0  0  0  0  0  0  0  0
   -0.1567   -0.0855    2.7390 H   0  0  0  0  0  0  0  0  0  0  0  0
   -1.3067    1.3222    3.1063 H   0  0  0  0  0  0  0  0  0  0  0  0
   -0.1642    2.7729    1.1877 H   0  0  0  0  0  0  0  0  0  0  0  0
   -1.6744    3.1091    0.3728 H   0  0  0  0  0  0  0  0  0  0  0  0
   -0.1718    2.4453   -0.5210 H   0  0  0  0  0  0  0  0  0  0  0  0
   -2.6806    1.9024    2.4072 H   0  0  0  0  0  0  0  0  0  0  0  0
   -3.2521    2.3519    0.8613 H   0  0  0  0  0  0  0  0  0  0  0  0
   -3.7091    0.7271    1.6723 H   0  0  0  0  0  0  0  0  0  0  0  0
   -0.7165   -1.3277    1.8317 H   0  0  0  0  0  0  0  0  0  0  0  0
   -3.4184   -2.2283   -0.3484 H   0  0  0  0  0  0  0  0  0  0  0  0
   -3.7874   -2.6373    1.2661 H   0  0  0  0  0  0  0  0  0  0  0  0
   -4.1706   -0.9959    0.8417 H   0  0  0  0  0  0  0  0  0  0  0  0
   -1.4631   -2.8872   -0.5906 H   0  0  0  0  0  0  0  0  0  0  0  0
    0.0079   -2.3694   -0.0702 H   0  0  0  0  0  0  0  0  0  0  0  0
   -1.0961   -3.4553    0.9329 H   0  0  0  0  0  0  0  0  0  0  0  0
   -1.9337   -0.5308    3.5932 H   0  0  0  0  0  0  0  0  0  0  0  0
   -3.4482   -0.8537    3.0055 H   0  0  0  0  0  0  0  0  0  0  0  0
   -2.5256   -2.2723    3.2314 H   0  0  0  0  0  0  0  0  0  0  0  0
   -0.8952    1.1775   -1.6597 H   0  0  0  0  0  0  0  0  0  0  0  0
   -4.1351   -0.4504   -1.4717 H   0  0  0  0  0  0  0  0  0  0  0  0
   -4.3907    1.1320   -2.0208 H   0  0  0  0  0  0  0  0  0  0  0  0
   -4.1722    1.0079   -0.2931 H   0  0  0  0  0  0  0  0  0  0  0  0
   -1.5656    3.3312   -1.6404 H   0  0  0  0  0  0  0  0  0  0  0  0
   -2.7231    2.5074   -2.6765 H   0  0  0  0  0  0  0  0  0  0  0  0
   -3.0589    2.9358   -1.0475 H   0  0  0  0  0  0  0  0  0  0  0  0
   -2.3121   -1.3426   -2.1256 H   0  0  0  0  0  0  0  0  0  0  0  0
   -1.6067   -0.3351   -3.2835 H   0  0  0  0  0  0  0  0  0  0  0  0
   -0.6437   -1.1433   -1.9466 H   0  0  0  0  0  0  0  0  0  0  0  0
    3.7083   -0.8766    1.7191 H   0  0  0  0  0  0  0  0  0  0  0  0
    3.0025   -2.3851    1.1581 H   0  0  0  0  0  0  0  0  0  0  0  0
    4.0239   -2.0815   -1.0805 H   0  0  0  0  0  0  0  0  0  0  0  0
    5.1066   -2.5559    0.2320 H   0  0  0  0  0  0  0  0  0  0  0  0
    6.3508   -0.6868    0.0196 H   0  0  0  0  0  0  0  0  0  0  0  0
    4.9640    0.3640    0.3686 H   0  0  0  0  0  0  0  0  0  0  0  0
    5.5122   -0.6469   -2.4765 H   0  0  0  0  0  0  0  0  0  0  0  0
    6.2577    0.7841   -1.7203 H   0  0  0  0  0  0  0  0  0  0  0  0
    3.9871    1.6370   -1.1680 H   0  0  0  0  0  0  0  0  0  0  0  0
    4.5076    1.6407   -2.8612 H   0  0  0  0  0  0  0  0  0  0  0  0
  1  2  1  0
  2  3  2  0
  3  4  1  0
  4  5  1  0
  5  6  1  0
  5  7  1  0
  5  8  1  0
  5  9  1  0
  9 10  1  0
  9 11  1  0
  9 12  1  0
  5 13  1  0
 13 14  1  0
 13 15  1  0
 13 16  1  0
  4 17  1  0
 17 18  2  0
 18 19  1  0
 19 20  1  0
 20 21  1  0
 21 22  1  0
 22 23  1  0
 23  1  1  0
 18  2  1  0
  1 24  1  0
  1 25  1  0
  6 26  1  0
  6 27  1  0
  6 28  1  0
  7 29  1  0
  7 30  1  0
  7 31  1  0
  8 32  1  0
  8 33  1  0
  8 34  1  0
  9 35  1  0
 10 36  1  0
 10 37  1  0
 10 38  1  0
 11 39  1  0
 11 40  1  0
 11 41  1  0
 12 42  1  0
 12 43  1  0
 12 44  1  0
 13 45  1  0
 14 46  1  0
 14 47  1  0
 14 48  1  0
 15 49  1  0
 15 50  1  0
 15 51  1  0
 16 52  1  0
 16 53  1  0
 16 54  1  0
 19 55  1  0
 19 56  1  0
 20 57  1  0
 20 58  1  0
 21 59  1  0
 21 60  1  0
 22 61  1  0
 22 62  1  0
 23 63  1  0
 23 64  1  0
M  END
