
 OpenBabel09252518483D

 28 28  0  0  0  0  0  0  0  0999 V2000
    1.0040   -0.2202   -0.2062 H   0  0  0  0  0  0  0  0  0  0  0  0
    2.0871   -0.2220   -0.0703 C   0  0  0  0  0  0  0  0  0  0  0  0
    2.7728   -1.4650   -0.4714 C   0  0  0  0  0  0  0  0  0  0  0  0
    2.2814   -2.1555   -1.5390 C   0  0  0  0  0  0  0  0  0  0  0  0
    1.1441   -1.6871   -2.2758 C   0  0  0  0  0  0  0  0  0  0  0  0
    0.2158   -1.2987   -2.8545 N   0  0  0  0  0  0  0  0  0  0  0  0
    2.8556   -3.3503   -2.0535 C   0  0  0  0  0  0  0  0  0  0  0  0
    3.3057   -4.3238   -2.4996 N   0  0  0  0  0  0  0  0  0  0  0  0
    3.9841   -1.7969    0.4004 C   0  0  0  0  0  0  0  0  0  0  0  0
    4.7083   -0.9766    0.3220 H   0  0  0  0  0  0  0  0  0  0  0  0
    3.6449   -1.8164    1.4454 H   0  0  0  0  0  0  0  0  0  0  0  0
    4.7755   -3.0783    0.1730 C   0  0  0  0  0  0  0  0  0  0  0  0
    4.1464   -3.9669    0.2787 H   0  0  0  0  0  0  0  0  0  0  0  0
    5.2576   -3.0788   -0.8095 H   0  0  0  0  0  0  0  0  0  0  0  0
    5.5742   -3.1566    0.9186 H   0  0  0  0  0  0  0  0  0  0  0  0
    2.6753    0.9432    0.2556 C   0  0  0  0  0  0  0  0  0  0  0  0
    3.7552    1.0380    0.3260 H   0  0  0  0  0  0  0  0  0  0  0  0
    1.9335    2.2076    0.2111 C   0  0  0  0  0  3  0  0  0  0  0  0
    2.5144    3.3356   -0.5509 C   0  0  0  0  0  3  0  0  0  0  0  0
    3.5338    3.6513   -0.3702 H   0  0  0  0  0  0  0  0  0  0  0  0
    1.7557    3.8930   -1.6663 C   0  0  0  0  0  3  0  0  0  0  0  0
    2.2633    4.3791   -2.4885 H   0  0  0  0  0  0  0  0  0  0  0  0
    0.3370    3.6020   -1.7711 C   0  0  0  0  0  3  0  0  0  0  0  0
   -0.3237    3.9425   -2.8926 F   0  0  0  0  0  0  0  0  0  0  0  0
   -0.3183    2.7579   -0.7898 C   0  0  0  0  0  3  0  0  0  0  0  0
   -1.2902    2.3346   -1.0076 H   0  0  0  0  0  0  0  0  0  0  0  0
    0.4610    2.2611    0.3380 C   0  0  0  0  0  3  0  0  0  0  0  0
    0.0048    2.1805    1.3172 H   0  0  0  0  0  0  0  0  0  0  0  0
  1  2  1  0  0  0  0
  2  3  1  0  0  0  0
  2 16  2  0  0  0  0
  3  4  2  0  0  0  0
  3  9  1  0  0  0  0
  4  5  1  0  0  0  0
  4  7  1  0  0  0  0
  5  6  3  0  0  0  0
  7  8  3  0  0  0  0
  9 10  1  0  0  0  0
  9 11  1  0  0  0  0
  9 12  1  0  0  0  0
 12 13  1  0  0  0  0
 12 14  1  0  0  0  0
 12 15  1  0  0  0  0
 16 17  1  0  0  0  0
 16 18  1  0  0  0  0
 18 19  1  0  0  0  0
 18 27  1  0  0  0  0
 19 20  1  0  0  0  0
 19 21  1  0  0  0  0
 21 22  1  0  0  0  0
 21 23  1  0  0  0  0
 23 24  1  0  0  0  0
 23 25  1  0  0  0  0
 25 26  1  0  0  0  0
 25 27  1  0  0  0  0
 27 28  1  0  0  0  0
M  END
$$$$
