
     RDKit          3D

 57 60  0  0  0  0  0  0  0  0999 V2000
    5.4051   -1.8554    1.1188 C   0  0  0  0  0  0  0  0  0  0  0  0
    4.3257   -1.0925    0.5981 O   0  0  0  0  0  0  0  0  0  0  0  0
    4.6323    0.0176   -0.1471 C   0  0  0  0  0  0  0  0  0  0  0  0
    5.9327    0.4516   -0.4285 C   0  0  0  0  0  0  0  0  0  0  0  0
    6.1463    1.5974   -1.2016 C   0  0  0  0  0  0  0  0  0  0  0  0
    5.0656    2.3194   -1.7012 C   0  0  0  0  0  0  0  0  0  0  0  0
    3.7656    1.8979   -1.4276 C   0  0  0  0  0  0  0  0  0  0  0  0
    3.5446    0.7526   -0.6527 C   0  0  0  0  0  0  0  0  0  0  0  0
    2.1927    0.3515   -0.3919 C   0  0  0  0  0  0  0  0  0  0  0  0
    1.0656   -0.0016   -0.1672 C   0  0  0  0  0  0  0  0  0  0  0  0
   -0.2636   -0.4599    0.1022 C   0  0  0  0  0  0  0  0  0  0  0  0
   -1.1995    0.3475    0.6474 C   0  0  0  0  0  0  0  0  0  0  0  0
   -2.5111   -0.2229    0.9389 N   0  0  0  0  0  0  0  0  0  0  0  0
   -3.4554   -0.2128   -0.1720 C   0  0  0  0  0  0  0  0  0  0  0  0
   -4.4954   -1.1509   -0.1323 C   0  0  0  0  0  0  0  0  0  0  0  0
   -5.4737   -1.1733   -1.1280 C   0  0  0  0  0  0  0  0  0  0  0  0
   -5.4332   -0.2426   -2.1631 C   0  0  0  0  0  0  0  0  0  0  0  0
   -4.4228    0.7164   -2.1962 C   0  0  0  0  0  0  0  0  0  0  0  0
   -3.4437    0.7409   -1.1989 C   0  0  0  0  0  0  0  0  0  0  0  0
   -3.1003    0.6734    2.3233 S   0  0  0  0  0  0  0  0  0  0  0  0
   -2.6394    0.0277    3.5344 O   0  0  0  0  0  0  0  0  0  0  0  0
   -4.4684    1.1078    2.1424 O   0  0  0  0  0  0  0  0  0  0  0  0
   -2.0596    2.0501    2.0583 C   0  0  0  0  0  0  0  0  0  0  0  0
   -2.2258    3.2981    2.6401 C   0  0  0  0  0  0  0  0  0  0  0  0
   -1.3303    4.2978    2.2745 C   0  0  0  0  0  0  0  0  0  0  0  0
   -0.3230    4.0298    1.3369 C   0  0  0  0  0  0  0  0  0  0  0  0
   -0.1972    2.7584    0.7559 C   0  0  0  0  0  0  0  0  0  0  0  0
   -1.0692    1.7427    1.1300 C   0  0  0  0  0  0  0  0  0  0  0  0
   -0.4089   -2.3134   -0.3181 Si  0  0  0  0  0  4  0  0  0  0  0  0
    1.3117   -3.1105   -0.4332 C   0  0  0  0  0  0  0  0  0  0  0  0
   -1.2379   -2.5367   -1.9882 C   0  0  0  0  0  0  0  0  0  0  0  0
   -1.3358   -3.2573    1.0164 C   0  0  0  0  0  0  0  0  0  0  0  0
    6.0087   -1.2625    1.8136 H   0  0  0  0  0  0  0  0  0  0  0  0
    6.0199   -2.2705    0.3135 H   0  0  0  0  0  0  0  0  0  0  0  0
    4.9813   -2.6943    1.6791 H   0  0  0  0  0  0  0  0  0  0  0  0
    6.8047   -0.0794   -0.0614 H   0  0  0  0  0  0  0  0  0  0  0  0
    7.1614    1.9248   -1.4141 H   0  0  0  0  0  0  0  0  0  0  0  0
    5.2349    3.2084   -2.3033 H   0  0  0  0  0  0  0  0  0  0  0  0
    2.9259    2.4642   -1.8227 H   0  0  0  0  0  0  0  0  0  0  0  0
   -4.5501   -1.8706    0.6806 H   0  0  0  0  0  0  0  0  0  0  0  0
   -6.2718   -1.9100   -1.0875 H   0  0  0  0  0  0  0  0  0  0  0  0
   -6.1976   -0.2556   -2.9361 H   0  0  0  0  0  0  0  0  0  0  0  0
   -4.4018    1.4541   -2.9946 H   0  0  0  0  0  0  0  0  0  0  0  0
   -2.6838    1.5139   -1.2492 H   0  0  0  0  0  0  0  0  0  0  0  0
   -3.0256    3.4856    3.3496 H   0  0  0  0  0  0  0  0  0  0  0  0
   -1.4162    5.2916    2.7083 H   0  0  0  0  0  0  0  0  0  0  0  0
    0.3656    4.8218    1.0483 H   0  0  0  0  0  0  0  0  0  0  0  0
    0.5723    2.6035    0.0081 H   0  0  0  0  0  0  0  0  0  0  0  0
    1.2122   -4.1844   -0.6178 H   0  0  0  0  0  0  0  0  0  0  0  0
    1.8887   -2.6751   -1.2541 H   0  0  0  0  0  0  0  0  0  0  0  0
    1.8620   -2.9711    0.5018 H   0  0  0  0  0  0  0  0  0  0  0  0
   -0.7246   -1.9481   -2.7544 H   0  0  0  0  0  0  0  0  0  0  0  0
   -1.2069   -3.5881   -2.2901 H   0  0  0  0  0  0  0  0  0  0  0  0
   -2.2845   -2.2271   -1.9630 H   0  0  0  0  0  0  0  0  0  0  0  0
   -0.9272   -3.0280    2.0050 H   0  0  0  0  0  0  0  0  0  0  0  0
   -1.2408   -4.3350    0.8516 H   0  0  0  0  0  0  0  0  0  0  0  0
   -2.4005   -3.0168    1.0193 H   0  0  0  0  0  0  0  0  0  0  0  0
  1  2  1  0
  2  3  1  0
  3  4  2  0
  4  5  1  0
  5  6  2  0
  6  7  1  0
  7  8  2  0
  8  9  1  0
  9 10  3  0
 10 11  1  0
 11 12  2  3
 12 13  1  0
 13 14  1  0
 14 15  2  0
 15 16  1  0
 16 17  2  0
 17 18  1  0
 18 19  2  0
 13 20  1  0
 20 21  2  0
 20 22  2  0
 20 23  1  0
 23 24  2  0
 24 25  1  0
 25 26  2  0
 26 27  1  0
 27 28  2  0
 11 29  1  0
 29 30  1  0
 29 31  1  0
 29 32  1  0
  8  3  1  0
 28 12  1  0
 19 14  1  0
 28 23  1  0
  1 33  1  0
  1 34  1  0
  1 35  1  0
  4 36  1  0
  5 37  1  0
  6 38  1  0
  7 39  1  0
 15 40  1  0
 16 41  1  0
 17 42  1  0
 18 43  1  0
 19 44  1  0
 24 45  1  0
 25 46  1  0
 26 47  1  0
 27 48  1  0
 30 49  1  0
 30 50  1  0
 30 51  1  0
 31 52  1  0
 31 53  1  0
 31 54  1  0
 32 55  1  0
 32 56  1  0
 32 57  1  0
M  END
