
 OpenBabel09252518113D

 35 38  0  0  0  0  0  0  0  0999 V2000
    0.8968    0.1766    0.1615 F   0  0  0  0  0  0  0  0  0  0  0  0
    2.2526    0.0725    0.0600 C   0  0  0  0  0  0  0  0  0  0  0  0
    2.6740    1.2673   -0.4421 F   0  0  0  0  0  0  0  0  0  0  0  0
    2.7184    0.0139    1.3368 F   0  0  0  0  0  0  0  0  0  0  0  0
    2.6789   -1.1111   -0.7710 C   0  0  0  0  0  0  0  0  0  0  0  0
    2.0266   -2.3451   -0.6448 C   0  0  0  0  0  0  0  0  0  0  0  0
    2.3996   -3.4260   -1.4450 C   0  0  0  0  0  0  0  0  0  0  0  0
    3.4245   -3.2858   -2.3833 C   0  0  0  0  0  0  0  0  0  0  0  0
    4.1217   -2.0814   -2.4795 C   0  0  0  0  0  0  0  0  0  0  0  0
    3.7496   -1.0029   -1.6704 C   0  0  0  0  0  0  0  0  0  0  0  0
    5.2257   -1.9544   -3.3581 N   0  0  0  0  0  0  0  0  0  0  0  0
    4.9946   -2.5872   -4.9826 C   0  0  0  0  0  0  0  0  0  0  0  0
    6.3283   -2.2213   -6.0505 C   0  0  0  0  0  0  0  0  0  0  0  0
    7.1343   -3.6803   -6.6327 Cl  0  0  0  0  0  0  0  0  0  0  0  0
    6.7825   -1.0827   -6.8227 O   0  0  0  0  0  0  0  0  0  0  0  0
    7.1747    0.0255   -5.9393 C   0  0  0  0  0  0  0  0  0  0  0  0
    7.4028    1.6754   -6.8649 Br  0  0  0  0  0  0  0  0  0  0  0  0
    8.3401   -0.1906   -4.9046 C   0  0  0  0  0  0  0  0  0  0  0  0
    7.8354   -1.2593   -3.9236 C   0  0  0  0  0  0  0  0  0  0  0  0
    6.8302   -1.7190   -4.8233 C   0  0  0  0  0  0  0  0  0  0  0  0
    6.0909   -0.1437   -4.9631 C   0  0  0  0  0  0  0  0  0  0  0  0
    4.1530    0.3988   -5.7990 I   0  0  0  0  0  0  0  0  0  0  0  0
    6.5628   -1.3199   -2.8042 C   0  0  0  0  0  0  0  0  0  0  0  0
    6.7008   -0.8808   -1.6691 O   0  0  0  0  0  0  0  0  0  0  0  0
    1.2235   -2.4667    0.0808 H   0  0  0  0  0  0  0  0  0  0  0  0
    1.9014   -4.3854   -1.3249 H   0  0  0  0  0  0  0  0  0  0  0  0
    3.7180   -4.1537   -2.9654 H   0  0  0  0  0  0  0  0  0  0  0  0
    4.2750   -0.0525   -1.7562 H   0  0  0  0  0  0  0  0  0  0  0  0
    4.9694   -3.6748   -4.8285 H   0  0  0  0  0  0  0  0  0  0  0  0
    4.0143   -2.2796   -5.3446 H   0  0  0  0  0  0  0  0  0  0  0  0
    8.5899    0.7227   -4.3503 H   0  0  0  0  0  0  0  0  0  0  0  0
    9.2373   -0.5457   -5.4248 H   0  0  0  0  0  0  0  0  0  0  0  0
    8.6069   -1.9807   -3.6363 H   0  0  0  0  0  0  0  0  0  0  0  0
    6.8221   -2.7057   -4.2917 H   0  0  0  0  0  0  0  0  0  0  0  0
    6.2119    0.5309   -4.1014 H   0  0  0  0  0  0  0  0  0  0  0  0
  1  2  1  0  0  0  0
  2  3  1  0  0  0  0
  2  4  1  0  0  0  0
  2  5  1  0  0  0  0
  5  6  1  0  0  0  0
  5 10  2  0  0  0  0
  6  7  2  0  0  0  0
  6 25  1  0  0  0  0
  7  8  1  0  0  0  0
  7 26  1  0  0  0  0
  8  9  2  0  0  0  0
  8 27  1  0  0  0  0
  9 10  1  0  0  0  0
  9 11  1  0  0  0  0
 10 28  1  0  0  0  0
 11 12  1  0  0  0  0
 11 23  1  0  0  0  0
 12 13  1  0  0  0  0
 12 29  1  0  0  0  0
 12 30  1  0  0  0  0
 13 14  1  0  0  0  0
 13 15  1  0  0  0  0
 13 20  1  0  0  0  0
 15 16  1  0  0  0  0
 16 17  1  0  0  0  0
 16 18  1  0  0  0  0
 16 21  1  0  0  0  0
 18 19  1  0  0  0  0
 18 31  1  0  0  0  0
 18 32  1  0  0  0  0
 19 20  1  0  0  0  0
 19 23  1  0  0  0  0
 19 33  1  0  0  0  0
 20 21  1  0  0  0  0
 20 34  1  0  0  0  0
 21 22  1  0  0  0  0
 21 35  1  0  0  0  0
 23 24  2  0  0  0  0
M  END
$$$$
