
  --CCDC--092525    3D                              

 49 54  0  0  0  0  0  0  0  0999 V2000
    5.5007    2.2434   -4.8755 H      0
    4.8077    1.8150   -4.1590 C      0
    4.2996    2.5789   -3.1246 C      0
    4.5984    3.6171   -3.0246 H      0
    3.3881    2.0320   -2.2252 C      0
    2.9910    0.7020   -2.2854 C      0
    3.5447   -0.0451   -3.3180 C      0
    4.4168    0.4932   -4.2586 C      0
    4.8072   -0.1298   -5.0565 H      0
    3.1585   -1.4757   -3.1814 C      0
    2.1069   -1.6720   -3.4247 H      0
    3.7979   -2.1294   -3.7874 H      0
    3.5088   -1.6228   -1.4215 P      0
    3.3930   -3.3851   -0.9805 C      0
    2.4469   -3.9982   -1.6845 F      0
    3.1438   -3.6237    0.3028 F      0
    4.4992   -4.0533   -1.2911 F      0
    4.7503   -1.2779   -0.1553 C      0
    4.3216   -1.4237    1.0927 F      0
    5.2272   -0.0614   -0.3762 F      0
    5.8210   -2.0555   -0.2713 F      0
    1.5401   -0.1489   -1.0158 Ir     0
    0.0261    0.4252   -2.2093 C      0
    0.1256    1.4249   -2.6498 H      0
   -0.4160   -0.3736   -2.8175 H      0
   -0.3469    0.3952   -0.7415 C      0
    0.0631    1.0956    0.0882 H      0
    0.0862   -0.9637    0.0470 C      0
    1.1410   -0.7721    1.1172 C      0
    1.0874   -1.5777    1.8465 H      0
    0.9659    0.1590    1.6394 H      0
    2.1368   -0.7857    0.6911 H      0
    0.5807   -1.9867   -0.8307 C      0
   -0.1048   -2.2571   -1.6434 H      0
    1.0605   -2.7872   -0.2625 H      0
    2.6661    1.6790    0.2873 P      0
    1.5825    2.7770    1.2691 C      0
    1.0879    2.2747    2.3966 F      0
    0.5355    3.1952    0.5657 F      0
    2.1685    3.9357    1.5612 F      0
    3.5340    1.3002    1.8638 C      0
    3.0098    0.3787    2.6611 F      0
    3.6921    2.3590    2.6494 F      0
    4.8148    0.9985    1.7211 F      0
    2.6927    2.7802   -1.1427 C      0
    3.2008    3.7241   -0.9096 H      0
    1.6740    3.0264   -1.4657 H      0
    4.6591   -1.1757   -2.0826 H      0
    4.0196    1.8914    0.0031 H      0
  1  2  1
  2  3  4
  3  4  1
  3  5  4
  5  6  4
  6  7  4
  7  8  4
  2  8  4
  8  9  1
  7 10  1
 10 11  1
 10 12  1
 10 13  1
 13 14  1
 14 15  1
 14 16  1
 14 17  1
 13 18  1
 18 19  1
 18 20  1
 18 21  1
 13 22  1
  6 22  1
 22 23  1
 23 24  1
 23 25  1
 23 26  2
 22 26  1
 26 27  1
 26 28  1
 22 28  1
 28 29  1
 29 30  1
 29 31  1
 29 32  1
 28 33  2
 22 33  1
 33 34  1
 33 35  1
 22 36  1
 36 37  1
 37 38  1
 37 39  1
 37 40  1
 36 41  1
 41 42  1
 41 43  1
 41 44  1
 36 45  1
  5 45  1
 45 46  1
 45 47  1
 13 48  1
 36 49  1
M  END
$$$$
