
     RDKit          3D

 35 38  0  0  0  0  0  0  0  0999 V2000
    3.5316   -1.3407   -1.5291 C   0  0  0  0  0  0  0  0  0  0  0  0
    2.1530   -1.3589   -1.2894 C   0  0  0  0  0  0  0  0  0  0  0  0
    1.5071   -0.3071   -0.6234 C   0  0  0  0  0  0  0  0  0  0  0  0
    0.0839   -0.3351   -0.3555 N   0  0  0  0  0  0  0  0  0  0  0  0
   -0.7869   -1.0777   -1.1469 C   0  0  0  0  0  0  0  0  0  0  0  0
   -0.4905   -1.6749   -2.1810 O   0  0  0  0  0  0  0  0  0  0  0  0
   -2.2355   -1.0883   -0.7300 C   0  0  2  0  0  0  0  0  0  0  0  0
   -3.0345    0.1207   -1.2577 C   0  0  0  0  0  0  0  0  0  0  0  0
   -3.7413    0.5888    0.0273 C   0  0  2  0  0  0  0  0  0  0  0  0
   -5.2657    1.6672   -0.3640 Br  0  0  0  0  0  0  0  0  0  0  0  0
   -2.7470    1.2924    0.7968 O   0  0  0  0  0  0  0  0  0  0  0  0
   -1.8297    0.2735    1.2731 C   0  0  2  0  0  0  0  0  0  0  0  0
   -1.7353    0.4009    3.0529 Cl  0  0  0  0  0  0  0  0  0  0  0  0
   -0.4238    0.5618    0.6962 C   0  0  0  0  0  0  0  0  0  0  0  0
   -2.4846   -1.0316    0.7894 C   0  0  1  0  0  0  0  0  0  0  0  0
   -3.9888   -0.7230    0.7591 C   0  0  1  0  0  0  0  0  0  0  0  0
   -5.0278   -0.7179    2.5728 I   0  0  0  0  0  0  0  0  0  0  0  0
    2.3104    0.7656   -0.1941 C   0  0  0  0  0  0  0  0  0  0  0  0
    3.6992    0.8043   -0.4370 C   0  0  0  0  0  0  0  0  0  0  0  0
    4.5215    1.9724    0.0489 C   0  0  0  0  0  0  0  0  0  0  0  0
    4.8716    1.8454    1.3582 F   0  0  0  0  0  0  0  0  0  0  0  0
    3.8598    3.1596   -0.0466 F   0  0  0  0  0  0  0  0  0  0  0  0
    5.6856    2.1388   -0.6376 F   0  0  0  0  0  0  0  0  0  0  0  0
    4.3030   -0.2654   -1.1039 C   0  0  0  0  0  0  0  0  0  0  0  0
    3.9981   -2.1762   -2.0466 H   0  0  0  0  0  0  0  0  0  0  0  0
    1.6120   -2.2424   -1.6180 H   0  0  0  0  0  0  0  0  0  0  0  0
   -2.6722   -2.0177   -1.1232 H   0  0  0  0  0  0  0  0  0  0  0  0
   -3.7400   -0.2113   -2.0285 H   0  0  0  0  0  0  0  0  0  0  0  0
   -2.3913    0.8973   -1.6870 H   0  0  0  0  0  0  0  0  0  0  0  0
    0.3087    0.5092    1.5114 H   0  0  0  0  0  0  0  0  0  0  0  0
   -0.4043    1.5793    0.2850 H   0  0  0  0  0  0  0  0  0  0  0  0
   -2.1689   -1.9363    1.3149 H   0  0  0  0  0  0  0  0  0  0  0  0
   -4.5291   -1.4306    0.1138 H   0  0  0  0  0  0  0  0  0  0  0  0
    1.8766    1.6231    0.3162 H   0  0  0  0  0  0  0  0  0  0  0  0
    5.3748   -0.2651   -1.2959 H   0  0  0  0  0  0  0  0  0  0  0  0
  1  2  2  0
  2  3  1  0
  3  4  1  0
  4  5  1  0
  5  6  2  0
  5  7  1  0
  7  8  1  0
  8  9  1  0
  9 10  1  6
  9 11  1  0
 11 12  1  0
 12 13  1  1
 12 14  1  0
 12 15  1  0
 15 16  1  0
 16 17  1  0
  3 18  2  0
 18 19  1  0
 19 20  1  0
 20 21  1  0
 20 22  1  0
 20 23  1  0
 19 24  2  0
 24  1  1  0
 14  4  1  0
 15  7  1  0
 16  9  1  0
  1 25  1  0
  2 26  1  0
  7 27  1  6
  8 28  1  0
  8 29  1  0
 14 30  1  0
 14 31  1  0
 15 32  1  1
 16 33  1  6
 18 34  1  0
 24 35  1  0
M  END
