
  --CCDC--092525    3D                              

 68 74  0  0  0  0  0  0  0  0999 V2000
   -1.3094    0.3046   -2.1778 C      0
    0.1129    0.5275   -1.1403 S      0
    0.3057   -1.1767   -0.6810 C      0
   -0.3760    1.2499    0.0264 O      0
    0.7217    3.1938    1.5100 U      3
    3.3334    3.5554    1.5937 O      0
    3.9788    2.7038    2.5074 C      0
    5.1905    2.6761    2.6361 O      0
    3.0993    1.8711    3.4272 C      0
    1.9338    1.3844    2.7669 N      0
    2.0548    0.7050    1.4574 C      0
    2.4798    1.3848    0.0674 C      0
    1.9382    2.6067   -0.6138 N      0
    0.8135    3.1856   -1.4188 C      0
   -0.7065    3.5559   -1.0660 C      0
   -1.2001    4.1784    0.1776 N      0
   -2.2025    3.5092    1.0020 C      0
   -2.1565    3.4573    2.5838 C      0
   -0.9319    3.4680    3.4109 N      0
   -0.2846    2.3386    4.1576 C      0
    0.7850    1.2283    3.6928 C      0
   -0.8688    4.7562    4.0306 C      0
    0.5461    5.1944    4.3481 C      0
    0.7768    5.8838    5.3263 O      0
    1.5197    4.8530    3.4026 O      0
   -1.3080    5.5922    0.2589 C      0
    0.0251    6.2207   -0.0823 C      0
    0.0779    7.2815   -0.6801 O      0
    1.1547    5.5639    0.4248 O      0
   -1.0146    1.4035    2.4171 O      0
   -1.5021    0.3802    1.5242 S      0
   -1.2244   -1.2050    2.2723 C      0
   -3.2632    0.4087    1.7400 C      0
   -1.6201    1.2445   -2.6281 H      0
   -2.1459   -0.0906   -1.6051 H      0
   -1.0906   -0.3952   -2.9817 H      0
    0.5013   -1.7888   -1.5590 H      0
   -0.5968   -1.5518   -0.2031 H      0
    1.1363   -1.3084    0.0085 H      0
    3.6750    1.0283    3.8293 H      0
    2.8018    2.4794    4.2902 H      0
    2.7808   -0.1018    1.6169 H      0
    1.1206    0.1608    1.3211 H      0
    3.5358    1.6348    0.2213 H      0
    2.5641    0.5863   -0.6793 H      0
    2.7465    3.2483   -0.7429 H      0
    1.2221    4.1708   -1.6754 H      0
    0.8078    2.6795   -2.3923 H      0
   -0.9966    4.2610   -1.8546 H      0
   -1.3671    2.7136   -1.2886 H      0
   -3.1717    3.9503    0.7382 H      0
   -2.2912    2.4988    0.6080 H      0
   -2.7178    4.3472    2.8904 H      0
   -2.8294    2.6617    2.9301 H      0
    0.2488    2.8322    4.9770 H      0
   -1.0812    1.8152    4.7047 H      0
    0.3260    0.2539    3.5031 H      0
    1.2841    0.9971    4.6420 H      0
   -1.2943    5.5222    3.3708 H      0
   -1.4775    4.7603    4.9432 H      0
   -2.0874    5.9537   -0.4232 H      0
   -1.6105    5.8883    1.2710 H      0
   -1.6758   -1.9965    1.6778 H      0
   -1.6569   -1.2418    3.2699 H      0
   -0.1592   -1.4103    2.3569 H      0
   -3.5291    0.1552    2.7641 H      0
   -3.7434   -0.3095    1.0787 H      0
   -3.6685    1.3939    1.5202 H      0
  1  2  1
  2  3  1
  2  4  2
  4  5  1
  5  6  1
  6  7  1
  7  8  2
  7  9  1
  9 10  1
  5 10  1
 10 11  1
 11 12  1
 12 13  1
  5 13  1
 13 14  1
 14 15  1
 15 16  1
  5 16  1
 16 17  1
 17 18  1
 18 19  1
  5 19  1
 19 20  1
 20 21  1
 10 21  1
 19 22  1
 22 23  1
 23 24  2
 23 25  1
  5 25  1
 16 26  1
 26 27  1
 27 28  2
 27 29  1
  5 29  1
  5 30  1
 30 31  2
 31 32  1
 31 33  1
  1 34  1
  1 35  1
  1 36  1
  3 37  1
  3 38  1
  3 39  1
  9 40  1
  9 41  1
 11 42  1
 11 43  1
 12 44  1
 12 45  1
 13 46  1
 14 47  1
 14 48  1
 15 49  1
 15 50  1
 17 51  1
 17 52  1
 18 53  1
 18 54  1
 20 55  1
 20 56  1
 21 57  1
 21 58  1
 22 59  1
 22 60  1
 26 61  1
 26 62  1
 32 63  1
 32 64  1
 32 65  1
 33 66  1
 33 67  1
 33 68  1
M  CHG  1   5   1
M  END
$$$$
