
     RDKit          3D

 32 35  0  0  0  0  0  0  0  0999 V2000
    3.1500   -1.7049   -1.0107 C   0  0  0  0  0  0  0  0  0  0  0  0
    4.1795   -0.8571   -0.6145 C   0  0  0  0  0  0  0  0  0  0  0  0
    3.8751    0.3709   -0.0343 C   0  0  0  0  0  0  0  0  0  0  0  0
    2.5389    0.7313    0.1665 C   0  0  0  0  0  0  0  0  0  0  0  0
    1.4849   -0.1351   -0.1585 C   0  0  0  0  0  0  0  0  0  0  0  0
    1.8159   -1.3405   -0.7954 C   0  0  0  0  0  0  0  0  0  0  0  0
    0.0794    0.2819    0.1211 C   0  0  0  0  0  0  0  0  0  0  0  0
   -0.1329    1.5778    0.4592 C   0  0  0  0  0  0  0  0  0  0  0  0
    0.9943    2.5134    0.7416 C   0  0  0  0  0  0  0  0  0  0  0  0
    0.8057    3.6803    1.0727 O   0  0  0  0  0  0  0  0  0  0  0  0
    2.2565    2.0103    0.6445 N   0  0  0  0  0  0  0  0  0  0  0  0
   -1.5122    2.1810    0.5721 C   0  0  0  0  0  0  0  0  0  0  0  0
   -2.4976    1.4827   -0.3672 C   0  0  0  0  0  0  0  0  0  0  0  0
   -2.4047   -0.0073   -0.1789 C   0  0  0  0  0  0  0  0  0  0  0  0
   -3.5559   -0.8039   -0.2549 C   0  0  0  0  0  0  0  0  0  0  0  0
   -3.4786   -2.1695    0.0030 C   0  0  0  0  0  0  0  0  0  0  0  0
   -2.2581   -2.7384    0.3523 C   0  0  0  0  0  0  0  0  0  0  0  0
   -1.1056   -1.9486    0.4088 C   0  0  0  0  0  0  0  0  0  0  0  0
   -1.1463   -0.5821    0.0956 C   0  0  0  0  0  0  0  0  0  0  0  0
    3.3806   -2.6496   -1.4976 H   0  0  0  0  0  0  0  0  0  0  0  0
    5.2153   -1.1402   -0.7828 H   0  0  0  0  0  0  0  0  0  0  0  0
    4.6815    1.0469    0.2352 H   0  0  0  0  0  0  0  0  0  0  0  0
    1.0445   -2.0124   -1.1611 H   0  0  0  0  0  0  0  0  0  0  0  0
    3.0032    2.6619    0.8416 H   0  0  0  0  0  0  0  0  0  0  0  0
   -1.8494    2.1022    1.6136 H   0  0  0  0  0  0  0  0  0  0  0  0
   -1.5055    3.2457    0.3121 H   0  0  0  0  0  0  0  0  0  0  0  0
   -3.5110    1.8412   -0.1523 H   0  0  0  0  0  0  0  0  0  0  0  0
   -2.2739    1.7232   -1.4140 H   0  0  0  0  0  0  0  0  0  0  0  0
   -4.5193   -0.3589   -0.4922 H   0  0  0  0  0  0  0  0  0  0  0  0
   -4.3736   -2.7843   -0.0432 H   0  0  0  0  0  0  0  0  0  0  0  0
   -2.2008   -3.7976    0.5899 H   0  0  0  0  0  0  0  0  0  0  0  0
   -0.1800   -2.4204    0.7276 H   0  0  0  0  0  0  0  0  0  0  0  0
  1  2  2  0
  2  3  1  0
  3  4  2  0
  4  5  1  0
  5  6  2  0
  5  7  1  0
  7  8  2  0
  8  9  1  0
  9 10  2  0
  9 11  1  0
  8 12  1  0
 12 13  1  0
 13 14  1  0
 14 15  2  0
 15 16  1  0
 16 17  2  0
 17 18  1  0
 18 19  2  0
  6  1  1  0
 19  7  1  0
 11  4  1  0
 19 14  1  0
  1 20  1  0
  2 21  1  0
  3 22  1  0
  6 23  1  0
 11 24  1  0
 12 25  1  0
 12 26  1  0
 13 27  1  0
 13 28  1  0
 15 29  1  0
 16 30  1  0
 17 31  1  0
 18 32  1  0
M  END
