
     RDKit          3D

 23 24  0  0  0  0  0  0  0  0999 V2000
   -3.9803   -0.3486    1.9800 O   0  0  0  0  0  0  0  0  0  0  0  0
   -3.2103   -0.2502    1.0581 C   0  0  0  0  0  0  0  0  0  0  0  0
   -3.2684   -0.2201   -0.4765 C   0  0  0  0  0  0  0  0  0  0  0  0
   -1.7717   -0.5586   -0.3895 C   0  0  0  0  0  0  0  0  0  0  0  0
   -1.8488   -0.2420    1.0554 N   0  0  0  0  0  0  0  0  0  0  0  0
   -0.6630    0.6360   -1.1601 S   0  0  0  0  0  0  0  0  0  0  0  0
   -1.0437    1.9886   -0.7862 O   0  0  0  0  0  0  0  0  0  0  0  0
   -0.5532    0.2994   -2.5706 O   0  0  0  0  0  0  0  0  0  0  0  0
    0.9556    0.3555   -0.4592 C   0  0  0  0  0  0  0  0  0  0  0  0
    1.8189   -0.5630   -1.0629 C   0  0  0  0  0  0  0  0  0  0  0  0
    3.0805   -0.7794   -0.5090 C   0  0  0  0  0  0  0  0  0  0  0  0
    3.4740   -0.0763    0.6314 C   0  0  0  0  0  0  0  0  0  0  0  0
    2.6122    0.8516    1.2192 C   0  0  0  0  0  0  0  0  0  0  0  0
    1.3491    1.0751    0.6725 C   0  0  0  0  0  0  0  0  0  0  0  0
   -3.5401    0.7568   -0.8842 H   0  0  0  0  0  0  0  0  0  0  0  0
   -3.8933   -1.0004   -0.9166 H   0  0  0  0  0  0  0  0  0  0  0  0
   -1.4913   -1.5994   -0.5790 H   0  0  0  0  0  0  0  0  0  0  0  0
   -1.3977   -0.7114    1.8299 H   0  0  0  0  0  0  0  0  0  0  0  0
    1.5277   -1.1012   -1.9620 H   0  0  0  0  0  0  0  0  0  0  0  0
    3.7639   -1.4881   -0.9713 H   0  0  0  0  0  0  0  0  0  0  0  0
    4.4616   -0.2424    1.0562 H   0  0  0  0  0  0  0  0  0  0  0  0
    2.9307    1.4078    2.0980 H   0  0  0  0  0  0  0  0  0  0  0  0
    0.6875    1.8103    1.1264 H   0  0  0  0  0  0  0  0  0  0  0  0
  1  2  2  0
  2  3  1  0
  3  4  1  0
  4  5  1  0
  4  6  1  0
  6  7  2  0
  6  8  2  0
  6  9  1  0
  9 10  2  0
 10 11  1  0
 11 12  2  0
 12 13  1  0
 13 14  2  0
  5  2  1  0
 14  9  1  0
  3 15  1  0
  3 16  1  0
  4 17  1  0
  5 18  1  0
 10 19  1  0
 11 20  1  0
 12 21  1  0
 13 22  1  0
 14 23  1  0
M  END
