
  --CCDC--092525    3D                              

 87103  0  0  0  0  0  0  0  0999 V2000
    8.1470   -2.5846    1.3962 H      0
    7.4364   -1.8350    1.2165 C      0
    6.7210   -1.8832    0.0864 C      0
    7.1396   -1.6699   -0.9095 H      0
    5.4875   -1.4763    0.5176 C      0
    4.8160   -2.3489    0.6271 H      0
    5.2062   -0.1076    0.9745 C      0
    3.6623    1.0444    0.8347 P      3
    3.0414    2.6750    1.5959 C      0
    2.0663    3.6291    1.0653 C      0
    1.5550    3.5241    0.1036 H      0
    1.6973    4.7562    1.7782 C      0
    0.7677    5.2932    1.5704 H      0
    2.3512    4.9270    2.9548 C      0
    2.5458    5.8957    3.3252 H      0
    2.6517    3.8315    3.7023 C      0
    2.2304    3.7009    4.6982 H      0
    3.2202    2.7922    2.9825 C      0
    3.8459    2.0433    3.4653 H      0
    3.6071    1.7737   -1.5829 Ru     0
    1.8882    1.4111   -1.4352 H      0
    1.8574   -0.1581   -0.5394 Ru     0
    3.5986   -0.5376   -2.1962 Cl     0
   -0.0894    0.0949   -0.2563 C      0
   -0.0476    1.4688   -0.9437 C      0
   -1.0638    1.7815   -0.7452 H      0
    0.1898    1.2085   -1.9528 H      0
    0.6377    2.1028   -0.3906 H      0
    0.8309   -0.0932    1.1051 C      0
    1.5181    1.1397    1.7812 C      0
    2.1144    1.5186    0.9764 H      0
    0.7315    1.9083    2.0497 H      0
    2.0148    0.9279    2.7481 H      0
    2.0791   -1.2748    1.0389 C      0
    3.4548   -0.5858    1.3591 C      0
    3.9682   -0.1444    0.4629 H      0
    3.9627   -1.3301    1.9582 H      0
    3.5830    0.1519    2.0970 H      0
    2.2212   -2.0893   -0.4564 C      0
    3.4993   -2.1591   -1.2973 C      0
    3.9030   -2.9439   -0.8428 H      0
    4.1070   -1.3281   -1.1406 H      0
    3.6131   -2.3003   -2.4443 H      0
    1.1305   -1.7746   -1.6060 C      0
    1.3132   -1.7902   -3.1943 C      0
    0.4551   -2.0080   -3.6942 H      0
    1.9174   -2.5999   -3.3378 H      0
    1.8170   -1.0978   -3.8644 H      0
    0.0660   -1.3040   -0.7867 C      0
    0.5591   -2.7269   -0.3753 C      0
    1.2561   -3.2110   -1.1338 H      0
   -0.3133   -3.2800   -0.5616 H      0
    0.8140   -2.9464    0.6183 H      0
    5.5750    1.8859   -1.8271 C      0
    6.6925    0.9914   -1.3579 C      0
    7.5388    1.0097   -2.0366 H      0
    6.2695    0.0139   -1.3755 H      0
    6.8911    1.2541   -0.3135 H      0
    4.7641    1.8440   -3.1913 C      0
    3.5397    2.7304   -3.6318 C      0
    3.4440    2.2767   -4.6153 H      0
    3.8929    3.7245   -3.9468 H      0
    2.5592    2.2749   -3.2065 H      0
    3.4838    2.4302   -3.4022 C      0
    3.0014    3.5941   -2.4141 C      0
    1.9816    4.0260   -2.6822 H      0
    3.5658    4.5380   -2.5594 H      0
    2.6195    3.0532   -1.4968 H      0
    2.9718    3.4852   -2.3930 C      0
    3.9970    4.0032   -1.2326 C      0
    3.9331    3.0935   -0.5331 H      0
    3.5321    4.7871   -0.6568 H      0
    4.9201    4.3722   -1.7426 H      0
    3.9402    3.6788   -1.2836 C      0
    5.3509    3.0040   -1.3982 C      0
    5.8739    3.1245   -2.3690 H      0
    5.1170    1.9910   -0.9488 H      0
    5.9116    3.5541   -0.6369 H      0
    5.0110    2.8800   -0.6646 C      0
    5.4863    3.0803    0.8063 C      0
    5.0835    2.2119    1.3027 H      0
    5.1111    4.0405    1.1736 H      0
    6.5920    3.1588    0.9150 H      0
    6.2184    0.1528    1.8614 C      0
    6.0886    1.0344    2.4749 H      0
    7.2912   -0.7225    2.0121 C      0
    8.1557   -0.2897    2.4863 H      0
  1  2  1
  2  3  4
  3  4  1
  3  5  4
  5  6  1
  5  7  4
  7  8  1
  8  9  1
  9 10  4
 10 11  1
 10 12  4
 12 13  1
 12 14  4
 14 15  1
 14 16  4
 16 17  1
 16 18  4
  9 18  4
 18 19  1
  8 20  1
 20 21  1
 21 22  1
  8 22  1
 20 22  1
 22 23  1
 20 23  1
 22 24  1
 24 25  1
 25 26  1
 25 27  1
 25 28  1
 24 29  4
 22 29  1
 29 30  1
 30 31  1
 30 32  1
 30 33  1
 29 34  4
 22 34  1
 34 35  1
 35 36  1
 35 37  1
 35 38  1
 34 39  4
 22 39  1
 39 40  1
 40 41  1
 40 42  1
 40 43  1
 39 44  4
 22 44  1
 44 45  1
 45 46  1
 45 47  1
 45 48  1
 44 49  4
 24 49  4
 22 49  1
 49 50  1
 50 51  1
 50 52  1
 50 53  1
 20 54  1
 54 55  1
 55 56  1
 55 57  1
 55 58  1
 54 59  4
 20 59  1
 59 60  1
 60 61  1
 60 62  1
 60 63  1
 59 64  4
 20 64  1
 64 65  1
 65 66  1
 65 67  1
 65 68  1
 64 69  4
 20 69  1
 69 70  1
 70 71  1
 70 72  1
 70 73  1
 69 74  4
 20 74  1
 74 75  1
 75 76  1
 75 77  1
 75 78  1
 74 79  4
 54 79  4
 20 79  1
 79 80  1
 80 81  1
 80 82  1
 80 83  1
  7 84  4
 84 85  1
 84 86  4
  2 86  4
 86 87  1
M  CHG  1   8   1
M  END
$$$$
