
 OpenBabel09252519403D

 76 82  0  0  1  0  0  0  0  0999 V2000
    1.0409   -0.0539   -0.0736 H   0  0  0  0  0  0  0  0  0  0  0  0
    2.1109   -0.0539   -0.0736 C   0  0  0  0  0  3  0  0  0  0  0  0
    2.6232   -1.4369   -0.4828 C   0  0  0  0  0  3  0  0  0  0  0  0
    2.2340   -2.1742    0.1879 H   0  0  0  0  0  0  0  0  0  0  0  0
    2.1929   -1.7290   -1.8140 C   0  0  0  0  0  3  0  0  0  0  0  0
    2.5332   -2.7108   -2.0693 H   0  0  0  0  0  0  0  0  0  0  0  0
    2.6803   -0.8150   -2.7980 C   0  0  0  0  0  3  0  0  0  0  0  0
    4.5103   -0.8192   -2.7814 P   0  0  0  0  0  0  0  0  0  0  0  0
    4.4943   -1.8733   -1.2856 C   0  0  0  0  0  3  0  0  0  0  0  0
    3.7571   -1.1468   -0.1582 C   0  0  0  0  0  3  0  0  0  0  0  0
    4.2323   -0.2070    0.0313 H   0  0  0  0  0  0  0  0  0  0  0  0
    2.3988   -0.9248   -0.5434 C   0  0  0  0  0  3  0  0  0  0  0  0
    1.9097   -0.3888    0.2430 H   0  0  0  0  0  0  0  0  0  0  0  0
    1.6615   -2.1222   -0.7965 C   0  0  0  0  0  3  0  0  0  0  0  0
    1.6604   -2.7330    0.0820 H   0  0  0  0  0  0  0  0  0  0  0  0
    2.3139   -2.8882   -1.9498 C   0  0  0  0  0  3  0  0  0  0  0  0
    1.7882   -3.8057   -2.1130 H   0  0  0  0  0  0  0  0  0  0  0  0
    3.7724   -3.1898   -1.5911 C   0  0  0  0  0  3  0  0  0  0  0  0
    3.8061   -3.8253   -0.7309 H   0  0  0  0  0  0  0  0  0  0  0  0
    4.5130    1.0033   -2.6166 C   0  0  0  0  0  3  0  0  0  0  0  0
    3.7910    1.6070   -3.8235 C   0  0  0  0  0  3  0  0  0  0  0  0
    4.2715    1.2860   -4.7240 H   0  0  0  0  0  0  0  0  0  0  0  0
    2.4292    1.1732   -3.8292 C   0  0  0  0  0  3  0  0  0  0  0  0
    1.9508    1.5791   -4.6960 H   0  0  0  0  0  0  0  0  0  0  0  0
    1.6850    1.5732   -2.6771 C   0  0  0  0  0  3  0  0  0  0  0  0
    1.6917    2.6405   -2.6009 H   0  0  0  0  0  0  0  0  0  0  0  0
    2.3219    0.9682   -1.4238 C   0  0  0  0  0  3  0  0  0  0  0  0
    1.7912    1.3008   -0.5562 H   0  0  0  0  0  0  0  0  0  0  0  0
    3.7832    1.4191   -1.3351 C   0  0  0  0  0  3  0  0  0  0  0  0
    3.8417    2.9303   -1.1829 C   0  0  0  0  0  0  0  0  0  0  0  0
    5.0050    3.5373   -1.0876 N   0  0  0  0  0  0  0  0  0  0  0  0
    5.0616    4.9989   -0.9405 C   0  0  0  0  0  3  0  0  0  0  0  0
    6.5468    5.0139   -1.3094 C   0  0  0  0  0  3  0  0  0  0  0  0
    7.0770    4.3272   -0.6832 H   0  0  0  0  0  0  0  0  0  0  0  0
    6.7014    4.6287   -2.6770 C   0  0  0  0  0  3  0  0  0  0  0  0
    7.7464    4.6145   -2.9062 H   0  0  0  0  0  0  0  0  0  0  0  0
    6.0502    5.4984   -3.6049 C   0  0  0  0  0  3  0  0  0  0  0  0
    6.4360    6.4904   -3.4952 H   0  0  0  0  0  0  0  0  0  0  0  0
    4.5448    5.5029   -3.3288 C   0  0  0  0  0  3  0  0  0  0  0  0
    4.0606    6.1859   -3.9951 H   0  0  0  0  0  0  0  0  0  0  0  0
    4.3009    5.9395   -1.8808 C   0  0  1  0  0  0  0  0  0  0  0  0
    4.6498    6.9418   -1.7449 H   0  0  0  0  0  0  0  0  0  0  0  0
    4.5272   -1.7977   -4.8960 Co  0  0  0  0  0  0  0  0  0  0  0  0
    6.8571   -1.8031   -4.8749 P   0  0  0  0  0  0  0  0  0  0  0  0
    6.8401   -2.0325   -3.0594 C   0  0  0  0  0  0  0  0  0  0  0  0
    5.9626   -2.5756   -2.7767 H   0  0  0  0  0  0  0  0  0  0  0  0
    7.7098   -2.5797   -2.7609 H   0  0  0  0  0  0  0  0  0  0  0  0
    6.8379   -1.0764   -2.5790 H   0  0  0  0  0  0  0  0  0  0  0  0
    6.8637   -3.2607   -5.9813 C   0  0  0  0  0  0  0  0  0  0  0  0
    5.9957   -3.2378   -6.6066 H   0  0  0  0  0  0  0  0  0  0  0  0
    7.7430   -3.2418   -6.5908 H   0  0  0  0  0  0  0  0  0  0  0  0
    6.8563   -4.1547   -5.3935 H   0  0  0  0  0  0  0  0  0  0  0  0
    6.8674   -0.1161   -5.5839 C   0  0  0  0  0  0  0  0  0  0  0  0
    7.3673    0.5501   -4.9121 H   0  0  0  0  0  0  0  0  0  0  0  0
    7.3803   -0.1270   -6.5229 H   0  0  0  0  0  0  0  0  0  0  0  0
    5.8606    0.2151   -5.7312 H   0  0  0  0  0  0  0  0  0  0  0  0
    4.5134   -3.9123   -3.9175 P   0  0  0  0  0  0  0  0  0  0  0  0
    3.0172   -3.4618   -2.9650 C   0  0  0  0  0  0  0  0  0  0  0  0
    2.4404   -2.7527   -3.5212 H   0  0  0  0  0  0  0  0  0  0  0  0
    2.4300   -4.3385   -2.7874 H   0  0  0  0  0  0  0  0  0  0  0  0
    3.3065   -3.0308   -2.0293 H   0  0  0  0  0  0  0  0  0  0  0  0
    4.3490   -4.6768   -5.5721 C   0  0  0  0  0  0  0  0  0  0  0  0
    4.8244   -4.0546   -6.3013 H   0  0  0  0  0  0  0  0  0  0  0  0
    4.8141   -5.6404   -5.5676 H   0  0  0  0  0  0  0  0  0  0  0  0
    3.3122   -4.7823   -5.8148 H   0  0  0  0  0  0  0  0  0  0  0  0
    6.1740   -3.5983   -3.2156 C   0  0  0  0  0  0  0  0  0  0  0  0
    6.1276   -3.6600   -2.1484 H   0  0  0  0  0  0  0  0  0  0  0  0
    6.8617   -4.3298   -3.5856 H   0  0  0  0  0  0  0  0  0  0  0  0
    6.5036   -2.6216   -3.5024 H   0  0  0  0  0  0  0  0  0  0  0  0
    2.1704    0.5931   -2.4825 C   0  0  0  0  0  3  0  0  0  0  0  0
    2.5687    1.2860   -3.1940 H   0  0  0  0  0  0  0  0  0  0  0  0
    2.6237    0.9877   -1.0735 C   0  0  0  0  0  3  0  0  0  0  0  0
    3.6925    1.0235   -1.0375 H   0  0  0  0  0  0  0  0  0  0  0  0
    5.8902   -0.8224   -2.7689 H   0  0  0  0  0  0  0  0  0  0  0  0
    8.2370   -1.8063   -4.8624 H   0  0  0  0  0  0  0  0  0  0  0  0
    4.5053   -5.1647   -3.3381 H   0  0  0  0  0  0  0  0  0  0  0  0
  1  2  1  0  0  0  0
  2  3  1  0  0  0  0
  2 72  1  0  0  0  0
  3  4  1  0  0  0  0
  3  5  1  0  0  0  0
  5  6  1  0  0  0  0
  5  7  1  0  0  0  0
  7  8  1  0  0  0  0
  7 70  1  0  0  0  0
  8  9  1  0  0  0  0
  8 20  1  0  0  0  0
  8 43  1  0  0  0  0
  8 74  1  0  0  0  0
  9 10  1  0  0  0  0
  9 18  1  0  0  0  0
 10 11  1  0  0  0  0
 10 12  1  0  0  0  0
 12 13  1  0  0  0  0
 12 14  1  0  0  0  0
 14 15  1  0  0  0  0
 14 16  1  0  0  0  0
 16 17  1  0  0  0  0
 16 18  1  0  0  0  0
 18 19  1  0  0  0  0
 20 21  1  0  0  0  0
 20 29  1  0  0  0  0
 21 22  1  0  0  0  0
 21 23  1  0  0  0  0
 23 24  1  0  0  0  0
 23 25  1  0  0  0  0
 25 26  1  0  0  0  0
 25 27  1  0  0  0  0
 27 28  1  0  0  0  0
 27 29  1  0  0  0  0
 29 30  1  0  0  0  0
 30 31  2  0  0  0  0
 30 43  1  0  0  0  0
 31 32  1  0  0  0  0
 32 33  1  0  0  0  0
 32 41  1  0  0  0  0
 33 34  1  0  0  0  0
 33 35  1  0  0  0  0
 35 36  1  0  0  0  0
 35 37  1  0  0  0  0
 37 38  1  0  0  0  0
 37 39  1  0  0  0  0
 39 40  1  0  0  0  0
 39 41  1  0  0  0  0
 41 42  1  1  0  0  0
 41 43  1  0  0  0  0
 42 43  1  0  0  0  0
 43 44  1  0  0  0  0
 43 57  1  0  0  0  0
 44 45  1  0  0  0  0
 44 49  1  0  0  0  0
 44 53  1  0  0  0  0
 44 75  1  0  0  0  0
 45 46  1  0  0  0  0
 45 47  1  0  0  0  0
 45 48  1  0  0  0  0
 49 50  1  0  0  0  0
 49 51  1  0  0  0  0
 49 52  1  0  0  0  0
 53 54  1  0  0  0  0
 53 55  1  0  0  0  0
 53 56  1  0  0  0  0
 57 58  1  0  0  0  0
 57 62  1  0  0  0  0
 57 66  1  0  0  0  0
 57 76  1  0  0  0  0
 58 59  1  0  0  0  0
 58 60  1  0  0  0  0
 58 61  1  0  0  0  0
 62 63  1  0  0  0  0
 62 64  1  0  0  0  0
 62 65  1  0  0  0  0
 66 67  1  0  0  0  0
 66 68  1  0  0  0  0
 66 69  1  0  0  0  0
 70 71  1  0  0  0  0
 70 72  1  0  0  0  0
 72 73  1  0  0  0  0
M  END
$$$$
