
 OpenBabel09252517253D

114121  0  0  0  0  0  0  0  0999 V2000
    0.9794    0.0443    0.0873 C   0  0  0  0  0  0  0  0  0  0  0  0
    0.5061   -1.1163    0.7546 O   0  0  0  0  0  0  0  0  0  0  0  0
    1.1394   -2.2588    0.4374 C   0  0  0  0  0  0  0  0  0  0  0  0
    0.1638   -3.3207    0.2085 C   0  0  0  0  0  0  0  0  0  0  0  0
   -1.0894   -2.5874   -0.3262 O   0  0  0  0  0  0  0  0  0  0  0  0
   -2.2837   -3.2074    0.1272 C   0  0  0  0  0  0  0  0  0  0  0  0
   -0.9199   -1.1875    0.2837 Eu  0  0  0  0  0  0  0  0  0  0  0  0
   -0.4343   -3.7980    0.7142 N   0  0  0  0  0  0  0  0  0  0  0  0
    0.7781   -4.2788    0.5417 C   0  0  0  0  0  0  0  0  0  0  0  0
    2.2709   -4.8708    0.3292 S   0  0  0  0  0  0  0  0  0  0  0  0
   -3.1546   -2.4735    1.0506 N   0  0  0  0  0  0  0  0  0  0  0  0
   -3.1232   -3.3717    2.2139 C   0  0  0  0  0  0  0  0  0  0  0  0
   -2.7845   -2.8761    3.3848 C   0  0  0  0  0  0  0  0  0  0  0  0
   -2.7704   -3.7283    4.4836 C   0  0  0  0  0  0  0  0  0  0  0  0
   -3.5759   -4.8856    4.3956 C   0  0  0  0  0  0  0  0  0  0  0  0
   -3.6766   -5.4736    3.1359 C   0  0  0  0  0  0  0  0  0  0  0  0
   -3.4515   -4.7250    2.0770 C   0  0  0  0  0  0  0  0  0  0  0  0
   -3.5492   -5.3376    0.6894 C   0  0  0  0  0  0  0  0  0  0  0  0
   -2.5448   -6.4716    0.5642 C   0  0  0  0  0  0  0  0  0  0  0  0
   -4.9532   -5.8780    0.4719 C   0  0  0  0  0  0  0  0  0  0  0  0
   -2.4178   -1.4085    3.5327 C   0  0  0  0  0  0  0  0  0  0  0  0
   -3.3727   -0.7437    4.5107 C   0  0  0  0  0  0  0  0  0  0  0  0
   -0.9951   -1.2918    4.0550 C   0  0  0  0  0  0  0  0  0  0  0  0
   -4.4072   -2.2782    0.3065 C   0  0  0  0  0  0  0  0  0  0  0  0
   -5.5491   -1.8068    0.7970 C   0  0  0  0  0  0  0  0  0  0  0  0
    0.6294   -3.1517   -0.7051 N   0  0  0  0  0  0  0  0  0  0  0  0
    1.5440   -2.8747   -1.8221 C   0  0  0  0  0  0  0  0  0  0  0  0
    2.4857   -1.9676   -1.6750 C   0  0  0  0  0  0  0  0  0  0  0  0
    3.3290   -1.7106   -2.7505 C   0  0  0  0  0  0  0  0  0  0  0  0
    3.4623   -2.7403   -3.7085 C   0  0  0  0  0  0  0  0  0  0  0  0
    2.3211   -3.4992   -3.9622 C   0  0  0  0  0  0  0  0  0  0  0  0
    1.3894   -3.5563   -3.0343 C   0  0  0  0  0  0  0  0  0  0  0  0
    0.1311   -4.3720   -3.2823 C   0  0  0  0  0  0  0  0  0  0  0  0
   -0.5925   -3.8287   -4.5036 C   0  0  0  0  0  0  0  0  0  0  0  0
    0.5081   -5.8250   -3.5214 C   0  0  0  0  0  0  0  0  0  0  0  0
    2.6480   -1.2193   -0.3619 C   0  0  0  0  0  0  0  0  0  0  0  0
    4.0346   -1.4814    0.2027 C   0  0  0  0  0  0  0  0  0  0  0  0
    2.4726    0.2712   -0.6032 C   0  0  0  0  0  0  0  0  0  0  0  0
   -6.5739   -1.7719   -0.2533 C   0  0  0  0  0  0  0  0  0  0  0  0
   -7.9904   -1.3722   -0.3531 C   0  0  0  0  0  0  0  0  0  0  0  0
   -8.6135   -1.4878   -1.5132 C   0  0  0  0  0  0  0  0  0  0  0  0
   -7.9397   -2.0066   -2.7240 C   0  0  0  0  0  0  0  0  0  0  0  0
   -6.6804   -2.3619   -2.6348 C   0  0  0  0  0  0  0  0  0  0  0  0
   -5.8491   -2.8970   -3.7267 C   0  0  0  0  0  0  0  0  0  0  0  0
   -4.5929   -3.2066   -3.4623 C   0  0  0  0  0  0  0  0  0  0  0  0
   -3.9629   -3.0519   -2.1408 C   0  0  0  0  0  0  0  0  0  0  0  0
   -4.6274   -2.5773   -1.1171 C   0  0  0  0  0  0  0  0  0  0  0  0
   -6.0286   -2.2192   -1.3385 C   0  0  0  0  0  0  0  0  0  0  0  0
   -1.2335   -0.1119   -0.7188 O   0  0  0  0  0  0  0  0  0  0  0  0
   -1.5553   -0.7071   -1.9672 C   0  0  0  0  0  0  0  0  0  0  0  0
   -2.2792    0.6124   -0.2845 C   0  0  0  0  0  0  0  0  0  0  0  0
   -2.4319    0.4491    1.1579 C   0  0  0  0  0  0  0  0  0  0  0  0
   -1.9054   -0.9769    1.4474 O   0  0  0  0  0  0  0  0  0  0  0  0
   -1.2450   -1.0399    2.7029 C   0  0  0  0  0  0  0  0  0  0  0  0
    0.6227    0.9171    0.5932 H   0  0  0  0  0  0  0  0  0  0  0  0
    0.6227    0.0460   -0.9215 H   0  0  0  0  0  0  0  0  0  0  0  0
    2.0494    0.0443    0.0873 H   0  0  0  0  0  0  0  0  0  0  0  0
    1.7836   -2.5402    1.2441 H   0  0  0  0  0  0  0  0  0  0  0  0
    1.7165   -2.1096   -0.4512 H   0  0  0  0  0  0  0  0  0  0  0  0
    0.5228   -4.0627   -0.4737 H   0  0  0  0  0  0  0  0  0  0  0  0
   -0.0586   -3.8331    1.1211 H   0  0  0  0  0  0  0  0  0  0  0  0
   -2.2543   -3.3020    1.1926 H   0  0  0  0  0  0  0  0  0  0  0  0
   -3.1252   -2.6096   -0.1547 H   0  0  0  0  0  0  0  0  0  0  0  0
   -2.3717   -4.1779   -0.3147 H   0  0  0  0  0  0  0  0  0  0  0  0
   -2.1799   -3.5184    5.3509 H   0  0  0  0  0  0  0  0  0  0  0  0
   -4.0808   -5.2883    5.2487 H   0  0  0  0  0  0  0  0  0  0  0  0
   -3.9305   -6.5078    3.0323 H   0  0  0  0  0  0  0  0  0  0  0  0
   -3.3368   -4.5902   -0.0463 H   0  0  0  0  0  0  0  0  0  0  0  0
   -2.7572   -7.2190    1.2999 H   0  0  0  0  0  0  0  0  0  0  0  0
   -2.6136   -6.9028   -0.4126 H   0  0  0  0  0  0  0  0  0  0  0  0
   -1.5565   -6.0912    0.7174 H   0  0  0  0  0  0  0  0  0  0  0  0
   -5.6602   -5.0798    0.5600 H   0  0  0  0  0  0  0  0  0  0  0  0
   -5.0220   -6.3093   -0.5049 H   0  0  0  0  0  0  0  0  0  0  0  0
   -5.1656   -6.6254    1.2075 H   0  0  0  0  0  0  0  0  0  0  0  0
   -2.4889   -0.9254    2.5806 H   0  0  0  0  0  0  0  0  0  0  0  0
   -3.3016   -1.2268    5.4628 H   0  0  0  0  0  0  0  0  0  0  0  0
   -3.1146    0.2895    4.6148 H   0  0  0  0  0  0  0  0  0  0  0  0
   -4.3742   -0.8258    4.1430 H   0  0  0  0  0  0  0  0  0  0  0  0
   -0.3229   -1.7598    3.3665 H   0  0  0  0  0  0  0  0  0  0  0  0
   -0.7370   -0.2587    4.1591 H   0  0  0  0  0  0  0  0  0  0  0  0
   -0.9240   -1.7749    5.0071 H   0  0  0  0  0  0  0  0  0  0  0  0
    3.8500   -0.7810   -2.8474 H   0  0  0  0  0  0  0  0  0  0  0  0
    4.3880   -2.9272   -4.2114 H   0  0  0  0  0  0  0  0  0  0  0  0
    2.2053   -4.0224   -4.8884 H   0  0  0  0  0  0  0  0  0  0  0  0
   -0.5108   -4.3060   -2.4287 H   0  0  0  0  0  0  0  0  0  0  0  0
    0.0494   -3.8948   -5.3571 H   0  0  0  0  0  0  0  0  0  0  0  0
   -1.4783   -4.4030   -4.6782 H   0  0  0  0  0  0  0  0  0  0  0  0
   -0.8579   -2.8059   -4.3352 H   0  0  0  0  0  0  0  0  0  0  0  0
    1.0175   -6.2075   -2.6617 H   0  0  0  0  0  0  0  0  0  0  0  0
   -0.3777   -6.3992   -3.6960 H   0  0  0  0  0  0  0  0  0  0  0  0
    1.1500   -5.8910   -4.3750 H   0  0  0  0  0  0  0  0  0  0  0  0
    1.9095   -1.5572    0.3348 H   0  0  0  0  0  0  0  0  0  0  0  0
    4.7731   -1.1436   -0.4940 H   0  0  0  0  0  0  0  0  0  0  0  0
    4.1488   -0.9546    1.1270 H   0  0  0  0  0  0  0  0  0  0  0  0
    4.1581   -2.5306    0.3725 H   0  0  0  0  0  0  0  0  0  0  0  0
    1.4964    0.4557   -1.0006 H   0  0  0  0  0  0  0  0  0  0  0  0
    2.5868    0.7979    0.3211 H   0  0  0  0  0  0  0  0  0  0  0  0
    3.2111    0.6090   -1.2999 H   0  0  0  0  0  0  0  0  0  0  0  0
   -8.5075   -0.9930    0.5035 H   0  0  0  0  0  0  0  0  0  0  0  0
   -9.6408   -1.1961   -1.5789 H   0  0  0  0  0  0  0  0  0  0  0  0
   -8.4676   -2.0900   -3.6509 H   0  0  0  0  0  0  0  0  0  0  0  0
   -6.2525   -3.0313   -4.7086 H   0  0  0  0  0  0  0  0  0  0  0  0
   -3.9945   -3.5949   -4.2598 H   0  0  0  0  0  0  0  0  0  0  0  0
   -2.9385   -3.3338   -2.0138 H   0  0  0  0  0  0  0  0  0  0  0  0
   -2.4063   -1.3449   -1.8494 H   0  0  0  0  0  0  0  0  0  0  0  0
   -1.7793    0.0586   -2.6802 H   0  0  0  0  0  0  0  0  0  0  0  0
   -0.7227   -1.2836   -2.3126 H   0  0  0  0  0  0  0  0  0  0  0  0
   -3.1690    0.2746   -0.7735 H   0  0  0  0  0  0  0  0  0  0  0  0
   -2.1130    1.6453   -0.5090 H   0  0  0  0  0  0  0  0  0  0  0  0
   -3.4452    0.5797    1.4759 H   0  0  0  0  0  0  0  0  0  0  0  0
   -1.8534    1.1794    1.6840 H   0  0  0  0  0  0  0  0  0  0  0  0
   -0.4150   -0.3648    2.7036 H   0  0  0  0  0  0  0  0  0  0  0  0
   -1.9283   -0.7660    3.4795 H   0  0  0  0  0  0  0  0  0  0  0  0
   -0.8942   -2.0366    2.8718 H   0  0  0  0  0  0  0  0  0  0  0  0
  1  2  1  0  0  0  0
  1 55  1  0  0  0  0
  1 56  1  0  0  0  0
  1 57  1  0  0  0  0
  2  3  1  0  0  0  0
  2  7  1  0  0  0  0
  3  4  1  0  0  0  0
  3 58  1  0  0  0  0
  3 59  1  0  0  0  0
  4  5  1  0  0  0  0
  4 60  1  0  0  0  0
  4 61  1  0  0  0  0
  5  6  1  0  0  0  0
  5  7  1  0  0  0  0
  6 62  1  0  0  0  0
  6 63  1  0  0  0  0
  6 64  1  0  0  0  0
  7  8  1  0  0  0  0
  7 11  1  0  0  0  0
  7 26  1  0  0  0  0
  7 49  1  0  0  0  0
  7 53  1  0  0  0  0
  8  9  2  0  0  0  0
  9 10  2  0  0  0  0
 11 12  1  0  0  0  0
 11 24  1  0  0  0  0
 12 13  1  0  0  0  0
 12 17  2  0  0  0  0
 13 14  2  0  0  0  0
 13 21  1  0  0  0  0
 14 15  1  0  0  0  0
 14 65  1  0  0  0  0
 15 16  2  0  0  0  0
 15 66  1  0  0  0  0
 16 17  1  0  0  0  0
 16 67  1  0  0  0  0
 17 18  1  0  0  0  0
 18 19  1  0  0  0  0
 18 20  1  0  0  0  0
 18 68  1  0  0  0  0
 19 69  1  0  0  0  0
 19 70  1  0  0  0  0
 19 71  1  0  0  0  0
 20 72  1  0  0  0  0
 20 73  1  0  0  0  0
 20 74  1  0  0  0  0
 21 22  1  0  0  0  0
 21 23  1  0  0  0  0
 21 75  1  0  0  0  0
 22 76  1  0  0  0  0
 22 77  1  0  0  0  0
 22 78  1  0  0  0  0
 23 79  1  0  0  0  0
 23 80  1  0  0  0  0
 23 81  1  0  0  0  0
 24 25  2  0  0  0  0
 24 47  1  0  0  0  0
 25 26  1  0  0  0  0
 25 39  1  0  0  0  0
 26 27  1  0  0  0  0
 27 28  1  0  0  0  0
 27 32  2  0  0  0  0
 28 29  2  0  0  0  0
 28 36  1  0  0  0  0
 29 30  1  0  0  0  0
 29 82  1  0  0  0  0
 30 31  2  0  0  0  0
 30 83  1  0  0  0  0
 31 32  1  0  0  0  0
 31 84  1  0  0  0  0
 32 33  1  0  0  0  0
 33 34  1  0  0  0  0
 33 35  1  0  0  0  0
 33 85  1  0  0  0  0
 34 86  1  0  0  0  0
 34 87  1  0  0  0  0
 34 88  1  0  0  0  0
 35 89  1  0  0  0  0
 35 90  1  0  0  0  0
 35 91  1  0  0  0  0
 36 37  1  0  0  0  0
 36 38  1  0  0  0  0
 36 92  1  0  0  0  0
 37 93  1  0  0  0  0
 37 94  1  0  0  0  0
 37 95  1  0  0  0  0
 38 96  1  0  0  0  0
 38 97  1  0  0  0  0
 38 98  1  0  0  0  0
 39 40  1  0  0  0  0
 39 48  2  0  0  0  0
 40 41  2  0  0  0  0
 40 99  1  0  0  0  0
 41 42  1  0  0  0  0
 41100  1  0  0  0  0
 42 43  2  0  0  0  0
 42101  1  0  0  0  0
 43 44  1  0  0  0  0
 43 48  1  0  0  0  0
 44 45  2  0  0  0  0
 44102  1  0  0  0  0
 45 46  1  0  0  0  0
 45103  1  0  0  0  0
 46 47  2  0  0  0  0
 46104  1  0  0  0  0
 47 48  1  0  0  0  0
 49 50  1  0  0  0  0
 49 51  1  0  0  0  0
 50105  1  0  0  0  0
 50106  1  0  0  0  0
 50107  1  0  0  0  0
 51 52  1  0  0  0  0
 51108  1  0  0  0  0
 51109  1  0  0  0  0
 52 53  1  0  0  0  0
 52110  1  0  0  0  0
 52111  1  0  0  0  0
 53 54  1  0  0  0  0
 54112  1  0  0  0  0
 54113  1  0  0  0  0
 54114  1  0  0  0  0
M  END
$$$$
