
     RDKit          3D

 26 26  0  0  0  0  0  0  0  0999 V2000
    1.2018   -0.1247   -0.8053 C   0  0  0  0  0  0  0  0  0  0  0  0
    2.5490   -0.3593   -1.1040 C   0  0  0  0  0  0  0  0  0  0  0  0
    3.3707   -0.9844   -0.1562 C   0  0  0  0  0  0  0  0  0  0  0  0
    4.7849   -1.2315   -0.4677 N   0  0  0  0  0  4  0  0  0  0  0  0
    5.4769   -1.7864    0.3973 O   0  0  0  0  0  1  0  0  0  0  0  0
    5.2012   -0.8699   -1.5773 O   0  0  0  0  0  0  0  0  0  0  0  0
    2.8536   -1.3752    1.0857 C   0  0  0  0  0  0  0  0  0  0  0  0
    1.5062   -1.1372    1.3764 C   0  0  0  0  0  0  0  0  0  0  0  0
    0.6726   -0.5119    0.4357 C   0  0  0  0  0  0  0  0  0  0  0  0
   -0.7530   -0.2853    0.8029 C   0  0  0  0  0  0  0  0  0  0  0  0
   -1.2285   -0.6157    1.8770 O   0  0  0  0  0  0  0  0  0  0  0  0
   -1.4124    0.3264   -0.2108 O   0  0  0  0  0  0  0  0  0  0  0  0
   -2.8065    0.6072    0.0181 C   0  0  0  0  0  0  0  0  0  0  0  0
   -2.9439    1.9242    0.7734 C   0  0  0  0  0  0  0  0  0  0  0  0
   -3.4758    0.6960   -1.3479 C   0  0  0  0  0  0  0  0  0  0  0  0
    0.5764    0.3617   -1.5515 H   0  0  0  0  0  0  0  0  0  0  0  0
    2.9375   -0.0503   -2.0730 H   0  0  0  0  0  0  0  0  0  0  0  0
    3.4784   -1.8617    1.8327 H   0  0  0  0  0  0  0  0  0  0  0  0
    1.1070   -1.4423    2.3435 H   0  0  0  0  0  0  0  0  0  0  0  0
   -3.2748   -0.2086    0.5823 H   0  0  0  0  0  0  0  0  0  0  0  0
   -2.4659    1.8621    1.7564 H   0  0  0  0  0  0  0  0  0  0  0  0
   -2.4469    2.7383    0.2342 H   0  0  0  0  0  0  0  0  0  0  0  0
   -3.9956    2.1895    0.9187 H   0  0  0  0  0  0  0  0  0  0  0  0
   -3.0137    1.4762   -1.9630 H   0  0  0  0  0  0  0  0  0  0  0  0
   -4.5450    0.9091   -1.2544 H   0  0  0  0  0  0  0  0  0  0  0  0
   -3.3542   -0.2464   -1.8928 H   0  0  0  0  0  0  0  0  0  0  0  0
  1  2  2  0
  2  3  1  0
  3  4  1  0
  4  5  1  0
  4  6  2  0
  3  7  2  0
  7  8  1  0
  8  9  2  0
  9 10  1  0
 10 11  2  0
 10 12  1  0
 12 13  1  0
 13 14  1  0
 13 15  1  0
  9  1  1  0
  1 16  1  0
  2 17  1  0
  7 18  1  0
  8 19  1  0
 13 20  1  0
 14 21  1  0
 14 22  1  0
 14 23  1  0
 15 24  1  0
 15 25  1  0
 15 26  1  0
M  CHG  2   4   1   5  -1
M  END
