
 OpenBabel09252518193D

 57 60  0  0  0  0  0  0  0  0999 V2000
    1.3217   -0.1074    1.4877 H   0  0  0  0  0  0  0  0  0  0  0  0
    1.8059   -0.1630    0.5198 C   0  0  0  0  0  3  0  0  0  0  0  0
    1.8666   -1.4357   -0.1819 C   0  0  0  0  0  3  0  0  0  0  0  0
    1.5357   -2.3350    0.3256 H   0  0  0  0  0  0  0  0  0  0  0  0
    2.6568   -1.5570   -1.4007 C   0  0  0  0  0  3  0  0  0  0  0  0
    2.8763   -2.5489   -1.7798 H   0  0  0  0  0  0  0  0  0  0  0  0
    3.4152   -0.4127   -1.9123 C   0  0  0  0  0  3  0  0  0  0  0  0
    4.4313   -0.7080   -2.8485 N   0  0  0  0  0  0  0  0  0  0  0  0
    4.4836   -0.3264   -4.2484 C   0  0  0  0  0  0  0  0  0  0  0  0
    3.7441    0.6820   -4.7636 C   0  0  0  0  0  0  0  0  0  0  0  0
    4.4219    1.6151   -5.6322 C   0  0  0  0  0  0  0  0  0  0  0  0
    5.0500    2.3978   -6.2956 C   0  0  0  0  0  0  0  0  0  0  0  0
    5.6958    3.3691   -7.1256 C   0  0  0  0  0  3  0  0  0  0  0  0
    5.0422    3.5807   -8.4229 C   0  0  0  0  0  3  0  0  0  0  0  0
    4.9886    2.7668   -9.1338 H   0  0  0  0  0  0  0  0  0  0  0  0
    4.4476    4.8774   -8.7151 C   0  0  0  0  0  3  0  0  0  0  0  0
    3.9598    5.0431   -9.6665 H   0  0  0  0  0  0  0  0  0  0  0  0
    4.6186    5.9812   -7.7767 C   0  0  0  0  0  3  0  0  0  0  0  0
    4.2721    6.9714   -8.0440 H   0  0  0  0  0  0  0  0  0  0  0  0
    5.4951    5.8196   -6.6208 C   0  0  0  0  0  3  0  0  0  0  0  0
    5.8082    6.6889   -6.0556 H   0  0  0  0  0  0  0  0  0  0  0  0
    6.2568    4.5761   -6.4863 C   0  0  0  0  0  3  0  0  0  0  0  0
    7.6139    4.8238   -6.4487 O   0  0  0  0  0  0  0  0  0  0  0  0
    8.5142    3.8932   -7.0355 C   0  0  0  0  0  0  0  0  0  0  0  0
    8.8739    3.2014   -6.2701 H   0  0  0  0  0  0  0  0  0  0  0  0
    8.0996    3.3460   -7.8868 H   0  0  0  0  0  0  0  0  0  0  0  0
    9.3741    4.4590   -7.4132 H   0  0  0  0  0  0  0  0  0  0  0  0
    1.8739    0.8720   -4.8468 Si  0  0  0  0  0  0  0  0  0  0  0  0
    1.1250   -0.8241   -5.2172 C   0  0  0  0  0  0  0  0  0  0  0  0
    1.3621   -1.5361   -4.4223 H   0  0  0  0  0  0  0  0  0  0  0  0
    0.0371   -0.7486   -5.3031 H   0  0  0  0  0  0  0  0  0  0  0  0
    1.5184   -1.2126   -6.1615 H   0  0  0  0  0  0  0  0  0  0  0  0
    1.0080    1.5787   -3.3500 C   0  0  0  0  0  0  0  0  0  0  0  0
    1.5510    2.4323   -2.9361 H   0  0  0  0  0  0  0  0  0  0  0  0
    0.0086    1.9298   -3.6304 H   0  0  0  0  0  0  0  0  0  0  0  0
    0.8655    0.8261   -2.5721 H   0  0  0  0  0  0  0  0  0  0  0  0
    1.4165    2.0292   -6.2938 C   0  0  0  0  0  0  0  0  0  0  0  0
    1.7853    3.0413   -6.1001 H   0  0  0  0  0  0  0  0  0  0  0  0
    1.8492    1.6665   -7.2304 H   0  0  0  0  0  0  0  0  0  0  0  0
    0.3295    2.0753   -6.4072 H   0  0  0  0  0  0  0  0  0  0  0  0
    5.8178   -0.6262   -4.7716 C   0  0  0  0  0  3  0  0  0  0  0  0
    6.1963   -1.2732   -6.0276 C   0  0  0  0  0  3  0  0  0  0  0  0
    5.5140   -1.9911   -6.4724 H   0  0  0  0  0  0  0  0  0  0  0  0
    7.6118   -1.3036   -6.3909 C   0  0  0  0  0  3  0  0  0  0  0  0
    7.9441   -1.9401   -7.2030 H   0  0  0  0  0  0  0  0  0  0  0  0
    8.6044   -0.6728   -5.5169 C   0  0  0  0  0  3  0  0  0  0  0  0
    9.5006   -0.2589   -5.9648 H   0  0  0  0  0  0  0  0  0  0  0  0
    8.2382   -0.3074   -4.1444 C   0  0  0  0  0  3  0  0  0  0  0  0
    8.8353    0.4208   -3.6062 H   0  0  0  0  0  0  0  0  0  0  0  0
    6.8512   -0.4790   -3.7745 C   0  0  0  0  0  3  0  0  0  0  0  0
    6.0930   -0.5389   -2.2307 S   0  0  0  0  0  0  0  0  0  0  0  0
    6.2639    0.7458   -1.5815 O   0  0  0  0  0  0  0  0  0  0  0  0
    6.4453   -1.7766   -1.5636 O   0  0  0  0  0  0  0  0  0  0  0  0
    3.3609    0.8524   -1.1856 C   0  0  0  0  0  3  0  0  0  0  0  0
    3.9247    1.7097   -1.5316 H   0  0  0  0  0  0  0  0  0  0  0  0
    2.5915    0.9645    0.0452 C   0  0  0  0  0  3  0  0  0  0  0  0
    2.7352    1.8279    0.6835 H   0  0  0  0  0  0  0  0  0  0  0  0
  1  2  1  0  0  0  0
  2  3  1  0  0  0  0
  2 56  1  0  0  0  0
  3  4  1  0  0  0  0
  3  5  1  0  0  0  0
  5  6  1  0  0  0  0
  5  7  1  0  0  0  0
  7  8  1  0  0  0  0
  7 54  1  0  0  0  0
  8  9  1  0  0  0  0
  8 51  1  0  0  0  0
  9 10  2  0  0  0  0
  9 41  1  0  0  0  0
 10 11  1  0  0  0  0
 10 28  1  0  0  0  0
 11 12  3  0  0  0  0
 12 13  1  0  0  0  0
 13 14  1  0  0  0  0
 13 22  1  0  0  0  0
 14 15  1  0  0  0  0
 14 16  1  0  0  0  0
 16 17  1  0  0  0  0
 16 18  1  0  0  0  0
 18 19  1  0  0  0  0
 18 20  1  0  0  0  0
 20 21  1  0  0  0  0
 20 22  1  0  0  0  0
 22 23  1  0  0  0  0
 23 24  1  0  0  0  0
 24 25  1  0  0  0  0
 24 26  1  0  0  0  0
 24 27  1  0  0  0  0
 28 29  1  0  0  0  0
 28 33  1  0  0  0  0
 28 37  1  0  0  0  0
 29 30  1  0  0  0  0
 29 31  1  0  0  0  0
 29 32  1  0  0  0  0
 33 34  1  0  0  0  0
 33 35  1  0  0  0  0
 33 36  1  0  0  0  0
 37 38  1  0  0  0  0
 37 39  1  0  0  0  0
 37 40  1  0  0  0  0
 41 42  1  0  0  0  0
 41 50  1  0  0  0  0
 42 43  1  0  0  0  0
 42 44  1  0  0  0  0
 44 45  1  0  0  0  0
 44 46  1  0  0  0  0
 46 47  1  0  0  0  0
 46 48  1  0  0  0  0
 48 49  1  0  0  0  0
 48 50  1  0  0  0  0
 50 51  1  0  0  0  0
 51 52  2  0  0  0  0
 51 53  2  0  0  0  0
 54 55  1  0  0  0  0
 54 56  1  0  0  0  0
 56 57  1  0  0  0  0
M  END
$$$$
