
  --CCDC--092525    3D                              

 45 50  0  0  0  0  0  0  0  0999 V2000
    6.3082    0.9839   -0.4420 H      0
    6.5846    2.0285   -0.5564 C      0
    7.1167    2.3399    0.3393 H      0
    7.2698    2.1030   -1.3954 H      0
    5.0798    3.0948   -0.8434 Si     0
    3.6593    2.5883    0.1557 C      0
    2.4451    3.2795    0.0894 C      0
    0.6142    4.2539    0.0740 Cr     0
    2.2684    5.4069    0.5417 C      0
    3.1739    6.0467    0.7993 O      0
    1.8736    4.7896   -1.4797 C      0
    2.5665    5.0843   -2.3346 O      0
   -0.2112    4.2273    1.7669 C      0
    0.9304    4.4472    1.8182 H      0
   -0.1846    2.8232    1.1151 C      0
    0.7598    2.1214    0.9614 H      0
   -0.4943    2.7448   -0.3578 C      0
    0.2255    2.4144   -1.2494 H      0
   -0.8910    3.9930   -1.1054 C      0
   -0.3267    4.5102   -2.0191 H      0
   -1.0053    5.3267   -0.4008 C      0
   -0.3645    6.3245   -0.5807 H      0
   -0.6422    5.3973    0.9643 C      0
    0.4045    5.8563    0.7390 H      0
    3.8254    1.1270    1.2171 Si     0
    5.1650    1.2169    2.5161 C      0
    4.9637    2.0111    3.2311 H      0
    6.1338    1.4149    2.0647 H      0
    5.2326    0.2791    3.0644 H      0
    4.2467   -0.4373    0.2869 C      0
    4.9322   -1.0501    0.8691 H      0
    4.7238   -0.2042   -0.6626 H      0
    3.3595   -1.0302    0.0854 H      0
    2.2647    0.7651    2.1778 C      0
    1.8308    1.6824    2.5681 H      0
    2.4688    0.1057    3.0177 H      0
    1.5212    0.2880    1.5453 H      0
    5.6453    4.8316   -0.4563 C      0
    6.7021    4.9468   -0.6841 H      0
    5.4947    5.0599    0.5978 H      0
    5.0906    5.5556   -1.0498 H      0
    4.7459    3.0702   -2.6811 C      0
    5.2821    2.2546   -3.1629 H      0
    5.0598    4.0048   -3.1392 H      0
    3.6831    2.9383   -2.8743 H      0
  1  2  1
  2  3  1
  2  4  1
  2  5  1
  5  6  1
  6  7  4
  7  8  4
  8  9  1
  9 10  3
  8 11  1
 11 12  3
  8 13  1
 13 14  1
 13 15  4
  8 15  1
 15 16  1
 15 17  4
  8 17  1
 17 18  1
 17 19  4
  8 19  1
 19 20  1
 19 21  4
  8 21  1
 21 22  1
 21 23  4
 13 23  4
  8 23  1
 23 24  1
  6 25  1
 25 26  1
 26 27  1
 26 28  1
 26 29  1
 25 30  1
 30 31  1
 30 32  1
 30 33  1
 25 34  1
 34 35  1
 34 36  1
 34 37  1
  5 38  1
 38 39  1
 38 40  1
 38 41  1
  5 42  1
 42 43  1
 42 44  1
 42 45  1
M  END
$$$$
