
     RDKit          3D

 64 65  0  0  0  0  0  0  0  0999 V2000
    3.3201    1.7932    0.5902 C   0  0  0  0  0  0  0  0  0  0  0  0
    2.2367    0.8165    0.5292 C   0  0  0  0  0  0  0  0  0  0  0  0
    1.0999    1.1464   -0.0904 N   0  0  0  0  0  0  0  0  0  0  0  0
    0.2153    0.1583   -0.0621 N   0  0  0  0  0  0  0  0  0  0  0  0
   -1.4854    0.2027   -0.8818 Pt  0  0  0  0  0  6  0  0  0  0  0  0
   -0.8809    1.8182   -1.7979 C   0  0  0  0  0  0  0  0  0  0  0  0
   -0.5802   -0.6597   -2.3201 C   0  0  0  0  0  0  0  0  0  0  0  0
   -2.9100    0.2358   -2.1170 C   0  0  0  0  0  0  0  0  0  0  0  0
   -2.3190    1.3174    0.3784 P   0  0  0  0  0  5  0  0  0  0  0  0
   -2.8104    0.9064    1.9798 C   0  0  0  0  0  0  0  0  0  0  0  0
   -0.9125    2.3703    0.9591 C   0  0  0  0  0  0  0  0  0  0  0  0
   -3.2481    2.7412   -0.3597 C   0  0  0  0  0  0  0  0  0  0  0  0
   -1.8896   -1.5194   -0.1382 P   0  0  0  0  0  5  0  0  0  0  0  0
   -3.6465   -1.7863   -0.0500 C   0  0  0  0  0  0  0  0  0  0  0  0
   -1.4064   -1.5666    1.6087 C   0  0  0  0  0  0  0  0  0  0  0  0
   -0.7914   -2.8561   -0.6725 C   0  0  0  0  0  0  0  0  0  0  0  0
    0.7756   -0.8467    0.5888 N   0  0  0  0  0  0  0  0  0  0  0  0
    2.0029   -0.4675    0.9562 C   0  0  0  0  0  0  0  0  0  0  0  0
    2.7933   -1.4862    1.7108 C   0  0  0  0  0  0  0  0  0  0  0  0
    3.8075   -2.1489    0.7869 C   0  0  0  0  0  0  0  0  0  0  0  0
    4.6329   -1.1355    0.0450 C   0  0  0  0  0  0  0  0  0  0  0  0
    5.1002    0.0160    0.8681 C   0  0  0  0  0  0  0  0  0  0  0  0
    4.6823    1.2994    0.2484 C   0  0  0  0  0  0  0  0  0  0  0  0
    3.3644    2.3302    1.5813 H   0  0  0  0  0  0  0  0  0  0  0  0
    3.0934    2.6058   -0.1500 H   0  0  0  0  0  0  0  0  0  0  0  0
   -0.9655    1.5767   -2.9095 H   0  0  0  0  0  0  0  0  0  0  0  0
    0.1780    1.9554   -1.6431 H   0  0  0  0  0  0  0  0  0  0  0  0
   -1.5736    2.6148   -1.6505 H   0  0  0  0  0  0  0  0  0  0  0  0
   -1.2378   -1.5036   -2.6480 H   0  0  0  0  0  0  0  0  0  0  0  0
    0.4507   -0.8805   -2.1285 H   0  0  0  0  0  0  0  0  0  0  0  0
   -0.5765   -0.0271   -3.2500 H   0  0  0  0  0  0  0  0  0  0  0  0
   -3.7623    0.6099   -1.5606 H   0  0  0  0  0  0  0  0  0  0  0  0
   -2.6468    0.8264   -3.0008 H   0  0  0  0  0  0  0  0  0  0  0  0
   -3.0165   -0.8103   -2.4664 H   0  0  0  0  0  0  0  0  0  0  0  0
   -3.4958    0.7050    0.1074 H   0  0  0  0  0  0  0  0  0  0  0  0
   -2.0938    1.1202    2.8606 H   0  0  0  0  0  0  0  0  0  0  0  0
   -3.5567    1.7521    2.2644 H   0  0  0  0  0  0  0  0  0  0  0  0
   -3.2856    0.0346    2.3957 H   0  0  0  0  0  0  0  0  0  0  0  0
   -1.4197    3.1580    1.5708 H   0  0  0  0  0  0  0  0  0  0  0  0
   -0.3398    1.6725    1.5447 H   0  0  0  0  0  0  0  0  0  0  0  0
   -0.5497    2.7523    0.0287 H   0  0  0  0  0  0  0  0  0  0  0  0
   -3.5748    2.6211   -1.3841 H   0  0  0  0  0  0  0  0  0  0  0  0
   -2.6776    3.6977   -0.3830 H   0  0  0  0  0  0  0  0  0  0  0  0
   -4.1086    3.0431    0.2898 H   0  0  0  0  0  0  0  0  0  0  0  0
   -2.2609   -1.8950   -1.3466 H   0  0  0  0  0  0  0  0  0  0  0  0
   -3.9886   -1.6472    1.0309 H   0  0  0  0  0  0  0  0  0  0  0  0
   -3.9976   -2.8692   -0.1310 H   0  0  0  0  0  0  0  0  0  0  0  0
   -4.3424   -1.0774   -0.5266 H   0  0  0  0  0  0  0  0  0  0  0  0
   -0.5766   -2.2774    1.8225 H   0  0  0  0  0  0  0  0  0  0  0  0
   -2.2304   -2.0049    2.1914 H   0  0  0  0  0  0  0  0  0  0  0  0
   -1.0495   -0.5999    1.8026 H   0  0  0  0  0  0  0  0  0  0  0  0
   -1.2410   -3.8775   -0.5762 H   0  0  0  0  0  0  0  0  0  0  0  0
   -0.1126   -2.7190   -1.5089 H   0  0  0  0  0  0  0  0  0  0  0  0
    0.0465   -3.0652    0.0985 H   0  0  0  0  0  0  0  0  0  0  0  0
    2.1333   -2.3179    2.0375 H   0  0  0  0  0  0  0  0  0  0  0  0
    3.2359   -1.0972    2.6400 H   0  0  0  0  0  0  0  0  0  0  0  0
    3.1897   -2.6947    0.0174 H   0  0  0  0  0  0  0  0  0  0  0  0
    4.3644   -2.8968    1.3465 H   0  0  0  0  0  0  0  0  0  0  0  0
    5.4929   -1.6984   -0.3944 H   0  0  0  0  0  0  0  0  0  0  0  0
    4.0244   -0.7758   -0.8314 H   0  0  0  0  0  0  0  0  0  0  0  0
    4.8067   -0.0046    1.9328 H   0  0  0  0  0  0  0  0  0  0  0  0
    6.2296   -0.0057    0.9009 H   0  0  0  0  0  0  0  0  0  0  0  0
    4.8764    1.2437   -0.8483 H   0  0  0  0  0  0  0  0  0  0  0  0
    5.4082    2.0763    0.6254 H   0  0  0  0  0  0  0  0  0  0  0  0
  1  2  1  0
  2  3  2  0
  3  4  1  0
  4  5  1  0
  5  6  1  0
  5  7  1  0
  5  8  1  0
  5  9  1  0
  9 10  1  0
  9 11  1  0
  9 12  1  0
  5 13  1  0
 13 14  1  0
 13 15  1  0
 13 16  1  0
  4 17  1  0
 17 18  2  0
 18 19  1  0
 19 20  1  0
 20 21  1  0
 21 22  1  0
 22 23  1  0
 23  1  1  0
 18  2  1  0
  1 24  1  0
  1 25  1  0
  6 26  1  0
  6 27  1  0
  6 28  1  0
  7 29  1  0
  7 30  1  0
  7 31  1  0
  8 32  1  0
  8 33  1  0
  8 34  1  0
  9 35  1  0
 10 36  1  0
 10 37  1  0
 10 38  1  0
 11 39  1  0
 11 40  1  0
 11 41  1  0
 12 42  1  0
 12 43  1  0
 12 44  1  0
 13 45  1  0
 14 46  1  0
 14 47  1  0
 14 48  1  0
 15 49  1  0
 15 50  1  0
 15 51  1  0
 16 52  1  0
 16 53  1  0
 16 54  1  0
 19 55  1  0
 19 56  1  0
 20 57  1  0
 20 58  1  0
 21 59  1  0
 21 60  1  0
 22 61  1  0
 22 62  1  0
 23 63  1  0
 23 64  1  0
M  END
