
 OpenBabel09252515013D

 80 95  0  0  0  0  0  0  0  0999 V2000
    0.9733   -0.0716    0.0645 C   0  0  0  0  0  0  0  0  0  0  0  0
    0.5000   -1.3120   -0.4394 O   0  0  0  0  0  0  0  0  0  0  0  0
    0.8430   -1.7213   -1.7551 C   0  0  0  0  0  0  0  0  0  0  0  0
   -0.1812   -2.1462   -2.5852 C   0  0  0  0  0  0  0  0  0  0  0  0
    0.2649   -2.7069   -3.8053 C   0  0  0  0  0  0  0  0  0  0  0  0
    1.4740   -2.5387   -4.3090 C   0  0  0  0  0  0  0  0  0  0  0  0
    2.4255   -2.0515   -3.4567 C   0  0  0  0  0  0  0  0  0  0  0  0
    2.0883   -1.6060   -2.2014 C   0  0  0  0  0  0  0  0  0  0  0  0
    1.7803   -2.8582   -5.7108 N   0  0  0  0  0  0  0  0  0  0  0  0
    0.3251   -3.5790   -6.9289 Cu  0  0  0  0  0  0  0  0  0  0  0  0
   -0.9664   -2.8818   -7.2838 P   0  0  0  0  0  4  0  0  0  0  0  0
   -2.2069   -4.1169   -7.8173 C   0  0  0  0  0  0  0  0  0  0  0  0
   -2.7513   -4.0759   -9.0902 C   0  0  0  0  0  0  0  0  0  0  0  0
   -3.8783   -4.9147   -9.2591 C   0  0  0  0  0  0  0  0  0  0  0  0
   -4.1965   -5.9125   -8.4546 C   0  0  0  0  0  0  0  0  0  0  0  0
   -3.5734   -5.9349   -7.2377 C   0  0  0  0  0  0  0  0  0  0  0  0
   -2.5522   -5.0618   -6.9505 C   0  0  0  0  0  0  0  0  0  0  0  0
   -1.5999   -1.9839   -5.8205 C   0  0  0  0  0  0  0  0  0  0  0  0
   -2.9086   -2.2151   -5.4300 C   0  0  0  0  0  0  0  0  0  0  0  0
   -3.4568   -1.1882   -4.6256 C   0  0  0  0  0  0  0  0  0  0  0  0
   -2.7456   -0.2771   -3.9866 C   0  0  0  0  0  0  0  0  0  0  0  0
   -1.4405   -0.1441   -4.3719 C   0  0  0  0  0  0  0  0  0  0  0  0
   -0.8703   -1.0300   -5.2539 C   0  0  0  0  0  0  0  0  0  0  0  0
   -0.7068   -1.8960   -8.4132 C   0  0  0  0  0  0  0  0  0  0  0  0
   -0.8292   -2.4604   -9.7687 C   0  0  0  0  0  3  0  0  0  0  0  0
   -0.9712   -2.1092   -9.1145 C   0  0  0  0  0  0  0  0  0  0  0  0
    0.9009   -5.4626   -9.4503 C   0  0  0  0  0  0  0  0  0  0  0  0
    1.2569   -1.7915   -9.5625 C   0  0  0  0  0  0  0  0  0  0  0  0
    0.2442   -3.5605   -9.9766 Fe  0  0  0  0  0  0  0  0  0  0  0  0
    1.5269   -3.6176  -11.8836 C   0  0  0  0  0  0  0  0  0  0  0  0
    2.3054   -3.0527  -10.7632 C   0  0  0  0  0  3  0  0  0  0  0  0
    1.5505   -3.0197   -9.6503 C   0  0  0  0  0  0  0  0  0  0  0  0
   -0.0753   -4.7481   -9.1370 C   0  0  0  0  0  0  0  0  0  0  0  0
    0.2814   -3.9254  -11.4405 C   0  0  0  0  0  0  0  0  0  0  0  0
    0.4255   -4.9024   -7.7101 P   0  0  0  0  0  4  0  0  0  0  0  0
    2.1856   -5.3999   -7.7712 C   0  0  0  0  0  0  0  0  0  0  0  0
    2.8111   -5.5425   -8.9987 C   0  0  0  0  0  0  0  0  0  0  0  0
    4.0601   -6.2040   -8.9323 C   0  0  0  0  0  0  0  0  0  0  0  0
    4.7666   -6.3610   -7.8277 C   0  0  0  0  0  0  0  0  0  0  0  0
    4.1100   -6.1391   -6.6491 C   0  0  0  0  0  0  0  0  0  0  0  0
    2.8389   -5.6173   -6.6358 C   0  0  0  0  0  0  0  0  0  0  0  0
   -0.5824   -6.1718   -6.8606 C   0  0  0  0  0  0  0  0  0  0  0  0
   -0.0482   -7.3811   -6.4474 C   0  0  0  0  0  0  0  0  0  0  0  0
   -1.0190   -8.3744   -6.1775 C   0  0  0  0  0  0  0  0  0  0  0  0
   -2.3006   -8.1323   -5.9702 C   0  0  0  0  0  0  0  0  0  0  0  0
   -2.7529   -6.8952   -6.3369 C   0  0  0  0  0  0  0  0  0  0  0  0
   -1.8789   -5.9132   -6.7365 C   0  0  0  0  0  0  0  0  0  0  0  0
    3.1404   -2.6557   -6.2305 C   0  0  0  0  0  0  0  0  0  0  0  0
    4.0514   -2.2044   -5.4679 O   0  0  0  0  0  0  0  0  0  0  0  0
    3.4571   -2.9860   -7.6800 C   0  0  0  0  0  0  0  0  0  0  0  0
    3.2162   -4.2747   -7.9038 F   0  0  0  0  0  0  0  0  0  0  0  0
    2.6941   -2.2468   -8.4801 F   0  0  0  0  0  0  0  0  0  0  0  0
    4.7383   -2.7256   -7.9243 F   0  0  0  0  0  0  0  0  0  0  0  0
    0.6166    0.0669    1.0637 H   0  0  0  0  0  0  0  0  0  0  0  0
    0.6166    0.7245   -0.5551 H   0  0  0  0  0  0  0  0  0  0  0  0
    2.0433   -0.0716    0.0645 H   0  0  0  0  0  0  0  0  0  0  0  0
   -1.2159   -2.0583   -2.3271 H   0  0  0  0  0  0  0  0  0  0  0  0
   -0.4255   -3.3091   -4.3582 H   0  0  0  0  0  0  0  0  0  0  0  0
    3.4475   -2.0166   -3.7717 H   0  0  0  0  0  0  0  0  0  0  0  0
    2.8360   -1.1621   -1.5778 H   0  0  0  0  0  0  0  0  0  0  0  0
   -2.3556   -3.4653   -9.8748 H   0  0  0  0  0  0  0  0  0  0  0  0
   -4.5171   -4.7275  -10.0968 H   0  0  0  0  0  0  0  0  0  0  0  0
   -4.9038   -6.6630   -8.7398 H   0  0  0  0  0  0  0  0  0  0  0  0
   -3.8857   -6.6427   -6.4985 H   0  0  0  0  0  0  0  0  0  0  0  0
   -2.0304   -5.1439   -6.0200 H   0  0  0  0  0  0  0  0  0  0  0  0
   -3.4554   -3.0908   -5.7111 H   0  0  0  0  0  0  0  0  0  0  0  0
   -4.5215   -1.1468   -4.5283 H   0  0  0  0  0  0  0  0  0  0  0  0
   -3.1680    0.3245   -3.2091 H   0  0  0  0  0  0  0  0  0  0  0  0
   -0.8548    0.6616   -3.9811 H   0  0  0  0  0  0  0  0  0  0  0  0
    0.1712   -0.9506   -5.4862 H   0  0  0  0  0  0  0  0  0  0  0  0
    2.3881   -5.1849   -9.9142 H   0  0  0  0  0  0  0  0  0  0  0  0
    4.4601   -6.6048   -9.8402 H   0  0  0  0  0  0  0  0  0  0  0  0
    5.7975   -6.6466   -7.8536 H   0  0  0  0  0  0  0  0  0  0  0  0
    4.5928   -6.3750   -5.7239 H   0  0  0  0  0  0  0  0  0  0  0  0
    2.3714   -5.3841   -5.7020 H   0  0  0  0  0  0  0  0  0  0  0  0
    1.0033   -7.5489   -6.3418 H   0  0  0  0  0  0  0  0  0  0  0  0
   -0.6921   -9.3925   -6.1386 H   0  0  0  0  0  0  0  0  0  0  0  0
   -2.9501   -8.8650   -5.5386 H   0  0  0  0  0  0  0  0  0  0  0  0
   -3.8025   -6.6888   -6.3122 H   0  0  0  0  0  0  0  0  0  0  0  0
   -2.2464   -4.9312   -6.9497 H   0  0  0  0  0  0  0  0  0  0  0  0
  1  2  1  0  0  0  0
  1 54  1  0  0  0  0
  1 55  1  0  0  0  0
  1 56  1  0  0  0  0
  2  3  1  0  0  0  0
  3  4  1  0  0  0  0
  3  8  2  0  0  0  0
  4  5  2  0  0  0  0
  4 57  1  0  0  0  0
  5  6  1  0  0  0  0
  5 58  1  0  0  0  0
  6  7  2  0  0  0  0
  6  9  1  0  0  0  0
  7  8  1  0  0  0  0
  7 59  1  0  0  0  0
  8 60  1  0  0  0  0
  9 10  1  0  0  0  0
  9 48  1  0  0  0  0
 10 11  1  0  0  0  0
 10 35  1  0  0  0  0
 11 12  1  0  0  0  0
 11 18  1  0  0  0  0
 11 24  1  0  0  0  0
 12 13  1  0  0  0  0
 12 17  2  0  0  0  0
 13 14  2  0  0  0  0
 13 61  1  0  0  0  0
 14 15  1  0  0  0  0
 14 62  1  0  0  0  0
 15 16  2  0  0  0  0
 15 63  1  0  0  0  0
 16 17  1  0  0  0  0
 16 64  1  0  0  0  0
 17 65  1  0  0  0  0
 18 19  1  0  0  0  0
 18 23  2  0  0  0  0
 19 20  2  0  0  0  0
 19 66  1  0  0  0  0
 20 21  1  0  0  0  0
 20 67  1  0  0  0  0
 21 22  2  0  0  0  0
 21 68  1  0  0  0  0
 22 23  1  0  0  0  0
 22 69  1  0  0  0  0
 23 70  1  0  0  0  0
 24 25  1  0  0  0  0
 24 28  2  0  0  0  0
 24 29  1  0  0  0  0
 25 26  1  0  0  0  0
 25 29  1  0  0  0  0
 26 27  2  0  0  0  0
 26 29  1  0  0  0  0
 27 28  1  0  0  0  0
 27 29  1  0  0  0  0
 28 29  1  0  0  0  0
 29 30  1  0  0  0  0
 29 31  1  0  0  0  0
 29 32  1  0  0  0  0
 29 33  1  0  0  0  0
 29 34  1  0  0  0  0
 30 31  1  0  0  0  0
 30 34  2  0  0  0  0
 31 32  1  0  0  0  0
 32 33  2  0  0  0  0
 33 34  1  0  0  0  0
 33 35  1  0  0  0  0
 35 36  1  0  0  0  0
 35 42  1  0  0  0  0
 36 37  1  0  0  0  0
 36 41  2  0  0  0  0
 37 38  2  0  0  0  0
 37 71  1  0  0  0  0
 38 39  1  0  0  0  0
 38 72  1  0  0  0  0
 39 40  2  0  0  0  0
 39 73  1  0  0  0  0
 40 41  1  0  0  0  0
 40 74  1  0  0  0  0
 41 75  1  0  0  0  0
 42 43  1  0  0  0  0
 42 47  2  0  0  0  0
 43 44  2  0  0  0  0
 43 76  1  0  0  0  0
 44 45  1  0  0  0  0
 44 77  1  0  0  0  0
 45 46  2  0  0  0  0
 45 78  1  0  0  0  0
 46 47  1  0  0  0  0
 46 79  1  0  0  0  0
 47 80  1  0  0  0  0
 48 49  2  0  0  0  0
 48 50  1  0  0  0  0
 50 51  1  0  0  0  0
 50 52  1  0  0  0  0
 50 53  1  0  0  0  0
M  END
$$$$
