
     RDKit          3D

  0  0  0  0  0  0  0  0  0  0999 V3000
M  V30 BEGIN CTAB
M  V30 COUNTS 47 52 0 0 0
M  V30 BEGIN ATOM
M  V30 1 C 1.489239 1.487626 0.264807 0
M  V30 2 N 0.480079 2.269544 0.370561 0
M  V30 3 C -0.152701 3.524192 0.258469 0
M  V30 4 C -1.642238 3.531497 0.600779 0
M  V30 5 C -2.396800 2.376422 -0.002644 0
M  V30 6 N -2.288371 1.175227 0.768386 0
M  V30 7 C -2.377189 0.002878 1.292886 0
M  V30 8 C -2.112976 -1.089239 2.217551 0
M  V30 9 C -2.768030 -0.639002 -0.036887 0
M  V30 10 C -3.786317 -1.581311 -0.286013 0
M  V30 11 C -4.004869 -2.097078 -1.576821 0
M  V30 12 C -3.178100 -1.639007 -2.581845 0
M  V30 13 C -2.156734 -0.722263 -2.430667 0
M  V30 14 C -1.922248 -0.199376 -1.157304 0
M  V30 15 O -0.858907 0.712824 -1.085011 0
M  V30 16 Cu -0.703405 1.205382 1.008349 0 CFG=2 VAL=4
M  V30 17 O -0.025945 0.085910 1.706269 0
M  V30 18 C 1.062384 -0.663725 1.319644 0
M  V30 19 C 1.435364 -2.003355 1.633386 0
M  V30 20 C 2.599868 -2.478221 1.073047 0
M  V30 21 C 3.357859 -1.685291 0.250681 0
M  V30 22 C 4.503741 -2.193953 -0.294324 0
M  V30 23 C 5.347113 -1.501733 -1.139739 0
M  V30 24 C 4.999736 -0.199978 -1.452778 0
M  V30 25 C 3.853230 0.333493 -0.917482 0
M  V30 26 C 3.041043 -0.390448 -0.078554 0
M  V30 27 C 1.880262 0.094454 0.477897 0
M  V30 28 H 2.329491 2.012414 -0.066772 0
M  V30 29 H -0.171244 3.837849 -0.831266 0
M  V30 30 H 0.252407 4.403188 0.783060 0
M  V30 31 H -1.752700 3.480033 1.696971 0
M  V30 32 H -2.068229 4.434977 0.211074 0
M  V30 33 H -2.202340 2.227508 -1.078326 0
M  V30 34 H -3.476649 2.680901 0.060252 0
M  V30 35 H -1.431903 -1.870252 1.988392 0
M  V30 36 H -3.127620 -1.590489 2.303006 0
M  V30 37 H -1.936729 -0.799156 3.277365 0
M  V30 38 H -4.308666 -1.833739 0.658656 0
M  V30 39 H -4.801780 -2.795601 -1.621327 0
M  V30 40 H -3.371759 -2.052640 -3.562479 0
M  V30 41 H -1.519110 -0.374187 -3.222375 0
M  V30 42 H 0.787854 -2.548386 2.289894 0
M  V30 43 H 2.804251 -3.475657 1.354169 0
M  V30 44 H 4.781644 -3.203868 -0.057286 0
M  V30 45 H 6.255602 -1.934213 -1.559494 0
M  V30 46 H 5.651606 0.353016 -2.114071 0
M  V30 47 H 3.630782 1.332834 -1.197570 0
M  V30 END ATOM
M  V30 BEGIN BOND
M  V30 1 2 1 2
M  V30 2 1 2 3
M  V30 3 1 3 4
M  V30 4 1 4 5
M  V30 5 1 5 6
M  V30 6 2 6 7
M  V30 7 1 7 8
M  V30 8 1 7 9
M  V30 9 2 9 10
M  V30 10 1 10 11
M  V30 11 2 11 12
M  V30 12 1 12 13
M  V30 13 2 13 14
M  V30 14 1 14 15
M  V30 15 1 15 16
M  V30 16 1 16 17
M  V30 17 1 17 18
M  V30 18 2 18 19
M  V30 19 1 19 20
M  V30 20 2 20 21
M  V30 21 1 21 22
M  V30 22 2 22 23
M  V30 23 1 23 24
M  V30 24 2 24 25
M  V30 25 1 25 26
M  V30 26 2 26 27
M  V30 27 1 27 1
M  V30 28 9 2 16
M  V30 29 1 27 18
M  V30 30 9 6 16
M  V30 31 1 26 21
M  V30 32 1 14 9
M  V30 33 1 1 28
M  V30 34 1 3 29
M  V30 35 1 3 30
M  V30 36 1 4 31
M  V30 37 1 4 32
M  V30 38 1 5 33
M  V30 39 1 5 34
M  V30 40 1 8 35
M  V30 41 1 8 36
M  V30 42 1 8 37
M  V30 43 1 10 38
M  V30 44 1 11 39
M  V30 45 1 12 40
M  V30 46 1 13 41
M  V30 47 1 19 42
M  V30 48 1 20 43
M  V30 49 1 22 44
M  V30 50 1 23 45
M  V30 51 1 24 46
M  V30 52 1 25 47
M  V30 END BOND
M  V30 END CTAB
M  END
