
  --CCDC--092525    3D                              

 39 44  0  0  0  0  0  0  0  0999 V2000
    2.7828   -1.5696   -0.7133 C      0
    1.7508   -0.0124   -0.6312 Si     0
    0.9934    0.1863   -2.3300 C      0
    0.3485   -0.4730    0.5144 C      0
    2.6959    1.4446   -0.1109 C      0
    3.7599    1.9425   -0.8719 C      0
    5.3269    2.7099   -1.9959 Cr     0
    4.9596    0.6886   -2.2444 C      0
    4.7572   -0.4250   -2.3813 O      0
    3.6370    2.2920   -3.1131 C      0
    2.7304    2.0665   -3.7635 O      0
    5.9377    3.7022   -3.4633 C      0
    5.1395    4.5284   -2.4097 C      0
    5.3110    4.2269   -0.8937 C      0
    6.2799    3.0993   -0.4293 C      0
    7.0754    2.2740   -1.4815 C      0
    6.9025    2.5733   -2.9997 C      0
    2.3190    2.2069    1.4873 Si     0
    2.4390    1.0256    2.9312 C      0
    0.5896    2.9099    1.5744 C      0
    3.4543    3.6294    1.9139 C      0
    3.7889   -1.3833   -0.3403 H      0
    2.8600   -1.9330   -1.7363 H      0
    2.3383   -2.3567   -0.1067 H      0
    0.7053    1.2210   -2.5069 H      0
    0.1053   -0.4352   -2.4310 H      0
    1.7012   -0.1062   -3.1037 H      0
   -0.2932   -1.2242    0.0605 H      0
   -0.2618    0.3923    0.7560 H      0
    0.7343   -0.8759    1.4487 H      0
    1.9337    0.0881    2.7087 H      0
    1.9756    1.4611    3.8140 H      0
    3.4753    0.8061    3.1752 H      0
   -0.1407    2.1227    1.7485 H      0
    0.3307    3.4181    0.6479 H      0
    0.5135    3.6289    2.3877 H      0
    4.4896    3.2978    1.9618 H      0
    3.1884    4.0506    2.8814 H      0
    3.3837    4.4194    1.1690 H      0
  1  2  1
  2  3  1
  2  4  1
  2  5  1
  5  6  4
  6  7  4
  7  8  1
  8  9  3
  7 10  1
 10 11  3
  7 12  1
 12 13  4
  7 13  1
 13 14  4
  7 14  1
 14 15  4
  7 15  1
 15 16  4
  7 16  1
 16 17  4
  7 17  1
 12 17  4
  5 18  1
 18 19  1
 18 20  1
 18 21  1
  1 22  1
  1 23  1
  1 24  1
  3 25  1
  3 26  1
  3 27  1
  4 28  1
  4 29  1
  4 30  1
 19 31  1
 19 32  1
 19 33  1
 20 34  1
 20 35  1
 20 36  1
 21 37  1
 21 38  1
 21 39  1
M  END
$$$$
