
     RDKit          3D

 32 35  0  0  0  0  0  0  0  0999 V2000
    3.3084    1.4088   -0.9595 C   0  0  0  0  0  0  0  0  0  0  0  0
    4.1753    0.3224   -1.0217 C   0  0  0  0  0  0  0  0  0  0  0  0
    3.6860   -0.9619   -0.8016 C   0  0  0  0  0  0  0  0  0  0  0  0
    2.3337   -1.1467   -0.4973 C   0  0  0  0  0  0  0  0  0  0  0  0
    1.4546   -0.0627   -0.3586 C   0  0  0  0  0  0  0  0  0  0  0  0
    1.9588    1.2152   -0.6433 C   0  0  0  0  0  0  0  0  0  0  0  0
    0.0315   -0.3150    0.0139 C   0  0  0  0  0  0  0  0  0  0  0  0
   -0.4084   -1.5970   -0.0293 C   0  0  0  0  0  0  0  0  0  0  0  0
    0.5229   -2.7430   -0.2414 C   0  0  0  0  0  0  0  0  0  0  0  0
    0.1323   -3.9067   -0.2557 O   0  0  0  0  0  0  0  0  0  0  0  0
    1.8443   -2.4481   -0.3924 N   0  0  0  0  0  0  0  0  0  0  0  0
   -1.8627   -1.9711    0.1258 C   0  0  0  0  0  0  0  0  0  0  0  0
   -2.7763   -0.8504   -0.3742 C   0  0  0  0  0  0  0  0  0  0  0  0
   -2.3554    0.4563    0.2418 C   0  0  0  0  0  0  0  0  0  0  0  0
   -3.3168    1.4086    0.6089 C   0  0  0  0  0  0  0  0  0  0  0  0
   -2.9294    2.5791    1.2547 C   0  0  0  0  0  0  0  0  0  0  0  0
   -1.5868    2.7936    1.5492 C   0  0  0  0  0  0  0  0  0  0  0  0
   -0.6249    1.8541    1.1656 C   0  0  0  0  0  0  0  0  0  0  0  0
   -0.9828    0.6951    0.4615 C   0  0  0  0  0  0  0  0  0  0  0  0
    3.6769    2.4109   -1.1662 H   0  0  0  0  0  0  0  0  0  0  0  0
    5.2230    0.4733   -1.2682 H   0  0  0  0  0  0  0  0  0  0  0  0
    4.3582   -1.8105   -0.8922 H   0  0  0  0  0  0  0  0  0  0  0  0
    1.3095    2.0861   -0.6500 H   0  0  0  0  0  0  0  0  0  0  0  0
    2.4557   -3.2402   -0.5332 H   0  0  0  0  0  0  0  0  0  0  0  0
   -2.0619   -2.1893    1.1828 H   0  0  0  0  0  0  0  0  0  0  0  0
   -2.1059   -2.8751   -0.4443 H   0  0  0  0  0  0  0  0  0  0  0  0
   -2.7217   -0.7623   -1.4664 H   0  0  0  0  0  0  0  0  0  0  0  0
   -3.8130   -1.0905   -0.1108 H   0  0  0  0  0  0  0  0  0  0  0  0
   -4.3716    1.2302    0.4137 H   0  0  0  0  0  0  0  0  0  0  0  0
   -3.6764    3.3109    1.5508 H   0  0  0  0  0  0  0  0  0  0  0  0
   -1.2848    3.6895    2.0857 H   0  0  0  0  0  0  0  0  0  0  0  0
    0.4076    2.0363    1.4517 H   0  0  0  0  0  0  0  0  0  0  0  0
  1  2  2  0
  2  3  1  0
  3  4  2  0
  4  5  1  0
  5  6  2  0
  5  7  1  0
  7  8  2  0
  8  9  1  0
  9 10  2  0
  9 11  1  0
  8 12  1  0
 12 13  1  0
 13 14  1  0
 14 15  2  0
 15 16  1  0
 16 17  2  0
 17 18  1  0
 18 19  2  0
  6  1  1  0
 19  7  1  0
 11  4  1  0
 19 14  1  0
  1 20  1  0
  2 21  1  0
  3 22  1  0
  6 23  1  0
 11 24  1  0
 12 25  1  0
 12 26  1  0
 13 27  1  0
 13 28  1  0
 15 29  1  0
 16 30  1  0
 17 31  1  0
 18 32  1  0
M  END
