
 OpenBabel09252519443D

 45 50  0  0  1  0  0  0  0  0999 V2000
    0.9504   -0.0690   -0.0527 H   0  0  0  0  0  0  0  0  0  0  0  0
    2.0204   -0.0690   -0.0527 C   0  0  0  0  0  0  0  0  0  0  0  0
    2.3771    0.9109    0.1871 H   0  0  0  0  0  0  0  0  0  0  0  0
    2.3771   -0.7666    0.6760 H   0  0  0  0  0  0  0  0  0  0  0  0
    2.6437   -0.5624   -1.7453 Si  0  0  0  0  0  0  0  0  0  0  0  0
    2.0204   -2.2749   -2.1644 C   0  0  0  0  0  0  0  0  0  0  0  0
    1.2383   -2.4646   -3.2612 C   0  0  0  0  0  0  0  0  0  0  0  0
    0.1320   -2.7329   -4.8126 Cr  0  0  0  0  0  0  0  0  0  0  0  0
    1.3888   -4.4771   -4.8356 C   0  0  0  0  0  0  0  0  0  0  0  0
    2.1008   -5.4654   -4.8486 O   0  0  0  0  0  0  0  0  0  0  0  0
   -1.1368   -3.3225   -6.4451 C   0  0  0  0  0  0  0  0  0  0  0  0
   -1.8557   -3.6565   -7.3700 O   0  0  0  0  0  0  0  0  0  0  0  0
    0.0876   -3.8278   -7.7218 C   0  0  2  0  0  0  0  0  0  0  0  0
    0.6129   -4.2192   -8.5679 H   0  0  0  0  0  0  0  0  0  0  0  0
   -0.6888   -2.5815   -8.0864 C   0  0  1  0  0  0  0  0  0  0  0  0
   -1.0649   -2.4820   -9.0832 H   0  0  0  0  0  0  0  0  0  0  0  0
   -0.7204   -1.5608   -6.9682 C   0  0  1  0  0  0  0  0  0  0  0  0
   -0.7962   -0.6594   -7.5397 H   0  0  0  0  0  0  0  0  0  0  0  0
   -1.0547   -2.1893   -5.6232 C   0  0  1  0  0  0  0  0  0  0  0  0
   -1.8631   -1.5063   -5.4655 H   0  0  0  0  0  0  0  0  0  0  0  0
   -0.8981   -3.6849   -5.4065 C   0  0  1  0  0  0  0  0  0  0  0  0
   -1.5222   -4.4589   -5.0110 H   0  0  0  0  0  0  0  0  0  0  0  0
   -0.5279   -4.5868   -6.5654 C   0  0  2  0  0  0  0  0  0  0  0  0
   -0.7527   -5.5678   -6.9286 H   0  0  0  0  0  0  0  0  0  0  0  0
    2.4721   -3.7267   -1.0757 Si  0  0  0  0  0  0  0  0  0  0  0  0
    4.3316   -3.9202   -1.0348 C   0  0  0  0  0  0  0  0  0  0  0  0
    4.7745   -3.0287   -0.6423 H   0  0  0  0  0  0  0  0  0  0  0  0
    4.5901   -4.7509   -0.4119 H   0  0  0  0  0  0  0  0  0  0  0  0
    4.6943   -4.0918   -2.0267 H   0  0  0  0  0  0  0  0  0  0  0  0
    1.8383   -3.4269    0.6578 C   0  0  0  0  0  0  0  0  0  0  0  0
    0.7743   -3.3161    0.6344 H   0  0  0  0  0  0  0  0  0  0  0  0
    2.0968   -4.2576    1.2807 H   0  0  0  0  0  0  0  0  0  0  0  0
    2.2811   -2.5354    1.0503 H   0  0  0  0  0  0  0  0  0  0  0  0
    1.6982   -5.2847   -1.7616 C   0  0  0  0  0  0  0  0  0  0  0  0
    0.6342   -5.1740   -1.7851 H   0  0  0  0  0  0  0  0  0  0  0  0
    2.0609   -5.4563   -2.7536 H   0  0  0  0  0  0  0  0  0  0  0  0
    1.9567   -6.1154   -1.1387 H   0  0  0  0  0  0  0  0  0  0  0  0
    2.0204    0.6568   -3.0189 C   0  0  0  0  0  0  0  0  0  0  0  0
    2.3770    1.6367   -2.7791 H   0  0  0  0  0  0  0  0  0  0  0  0
    2.3770    0.3745   -3.9874 H   0  0  0  0  0  0  0  0  0  0  0  0
    0.9504    0.6568   -3.0189 H   0  0  0  0  0  0  0  0  0  0  0  0
    4.5137   -0.5624   -1.7453 C   0  0  0  0  0  0  0  0  0  0  0  0
    4.8704    0.4175   -1.5056 H   0  0  0  0  0  0  0  0  0  0  0  0
    4.8704   -1.2600   -1.0166 H   0  0  0  0  0  0  0  0  0  0  0  0
    4.8704   -0.8447   -2.7138 H   0  0  0  0  0  0  0  0  0  0  0  0
  1  2  1  0  0  0  0
  2  3  1  0  0  0  0
  2  4  1  0  0  0  0
  2  5  1  0  0  0  0
  5  6  1  0  0  0  0
  5 38  1  0  0  0  0
  5 42  1  0  0  0  0
  6  7  2  0  0  0  0
  6 25  1  0  0  0  0
  7  8  2  0  0  0  0
  8  9  1  0  0  0  0
  8 11  1  0  0  0  0
  8 13  1  0  0  0  0
  8 15  1  0  0  0  0
  8 17  1  0  0  0  0
  8 19  1  0  0  0  0
  8 21  1  0  0  0  0
  8 23  1  0  0  0  0
  9 10  3  0  0  0  0
 11 12  3  0  0  0  0
 13 14  1  6  0  0  0
 13 15  1  0  0  0  0
 13 23  1  0  0  0  0
 15 16  1  6  0  0  0
 15 17  1  0  0  0  0
 17 18  1  6  0  0  0
 17 19  1  0  0  0  0
 19 20  1  1  0  0  0
 19 21  1  0  0  0  0
 21 22  1  1  0  0  0
 21 23  1  0  0  0  0
 23 24  1  1  0  0  0
 25 26  1  0  0  0  0
 25 30  1  0  0  0  0
 25 34  1  0  0  0  0
 26 27  1  0  0  0  0
 26 28  1  0  0  0  0
 26 29  1  0  0  0  0
 30 31  1  0  0  0  0
 30 32  1  0  0  0  0
 30 33  1  0  0  0  0
 34 35  1  0  0  0  0
 34 36  1  0  0  0  0
 34 37  1  0  0  0  0
 38 39  1  0  0  0  0
 38 40  1  0  0  0  0
 38 41  1  0  0  0  0
 42 43  1  0  0  0  0
 42 44  1  0  0  0  0
 42 45  1  0  0  0  0
M  END
$$$$
