
 OpenBabel09252516173D

 73 85  0  0  0  0  0  0  0  0999 V2000
    0.9332    0.0439   -0.0601 Cl  0  0  0  0  0  0  0  0  0  0  0  0
    3.7032    0.0439   -0.0601 Zr  0  0  0  0  0  0  0  0  0  0  0  0
    2.6042   -1.7417   -1.8703 Cl  0  0  0  0  0  0  0  0  0  0  0  0
    3.5639    1.7880   -3.2466 C   0  0  0  0  0  0  0  0  0  0  0  0
    5.3698   -1.7418   -1.1501 C   0  0  0  0  0  0  0  0  0  0  0  0
    4.4476   -1.2544   -2.0234 C   0  0  0  0  0  0  0  0  0  0  0  0
    3.8604   -2.4130   -2.4174 C   0  0  0  0  0  0  0  0  0  0  0  0
    2.4910   -2.5367   -2.4351 C   0  0  0  0  0  0  0  0  0  0  0  0
    1.6976   -1.4119   -2.4098 C   0  0  0  0  0  0  0  0  0  0  0  0
    2.2049   -0.2128   -2.0195 C   0  0  0  0  0  0  0  0  0  0  0  0
    3.6383   -0.0662   -1.5873 C   0  0  0  0  0  0  0  0  0  0  0  0
    4.2208    1.2083   -2.2059 C   0  0  0  0  0  0  0  0  0  0  0  0
    5.6780    1.3667   -1.7706 Si  0  0  0  0  0  0  0  0  0  0  0  0
    6.3916    2.9178   -2.5335 C   0  0  0  0  0  0  0  0  0  0  0  0
    6.6633   -0.1174   -2.3392 C   0  0  0  0  0  0  0  0  0  0  0  0
    5.7460    1.4704   -0.2450 Si  0  0  0  0  0  0  0  0  0  0  0  0
    7.5277    1.6624    0.2892 C   0  0  0  0  0  0  0  0  0  0  0  0
    4.7627    2.9558    0.3239 C   0  0  0  0  0  0  0  0  0  0  0  0
    5.1598    0.2015    0.3772 C   0  0  0  0  0  0  0  0  0  0  0  0
    3.0900   -3.1458    1.6563 C   0  0  0  0  0  3  0  0  0  0  0  0
    3.8846   -1.9485    1.1609 C   0  0  0  0  0  0  0  0  0  0  0  0
    5.1370   -1.7180    1.6397 C   0  0  0  0  0  0  0  0  0  0  0  0
    5.6569   -2.5484    2.5425 C   0  0  0  0  0  0  0  0  0  0  0  0
    6.8752   -2.3477    3.0262 C   0  0  0  0  0  0  0  0  0  0  0  0
    7.6288   -1.2421    2.5790 C   0  0  0  0  0  0  0  0  0  0  0  0
    7.0894   -0.4109    1.6573 C   0  0  0  0  0  0  0  0  0  0  0  0
    5.8313   -0.6547    1.1938 C   0  0  0  0  0  0  0  0  0  0  0  0
    3.1407   -0.7922   -0.1066 Si  0  0  0  0  0  0  0  0  0  0  0  0
    3.0413    0.9336    0.6065 C   0  0  0  0  0  0  0  0  0  0  0  0
    4.2134   -0.7730   -1.6382 C   0  0  0  0  0  0  0  0  0  0  0  0
    1.4236   -1.3811   -0.5556 C   0  0  0  0  0  0  0  0  0  0  0  0
    6.5212   -0.5706   -0.2559 Si  0  0  0  0  0  0  0  0  0  0  0  0
    7.5392    0.3777   -1.5054 C   0  0  0  0  0  0  0  0  0  0  0  0
    5.5176    0.6286    0.7695 C   0  0  0  0  0  0  0  0  0  0  0  0
    7.6583   -1.5471    0.8623 C   0  0  0  0  0  0  0  0  0  0  0  0
    4.4701   -3.2395   -2.7176 H   0  0  0  0  0  0  0  0  0  0  0  0
    2.0420   -3.5073   -2.4686 H   0  0  0  0  0  0  0  0  0  0  0  0
    0.6703   -1.4825   -2.7005 H   0  0  0  0  0  0  0  0  0  0  0  0
    1.5692    0.6479   -2.0198 H   0  0  0  0  0  0  0  0  0  0  0  0
    7.4112    3.0285   -2.2287 H   0  0  0  0  0  0  0  0  0  0  0  0
    6.3439    2.8452   -3.5999 H   0  0  0  0  0  0  0  0  0  0  0  0
    5.8278    3.7671   -2.2082 H   0  0  0  0  0  0  0  0  0  0  0  0
    6.2552   -1.0050   -1.9027 H   0  0  0  0  0  0  0  0  0  0  0  0
    6.6155   -0.1899   -3.4057 H   0  0  0  0  0  0  0  0  0  0  0  0
    7.6830   -0.0065   -2.0346 H   0  0  0  0  0  0  0  0  0  0  0  0
    7.9371    2.5497   -0.1465 H   0  0  0  0  0  0  0  0  0  0  0  0
    7.5746    1.7344    1.3558 H   0  0  0  0  0  0  0  0  0  0  0  0
    8.0911    0.8128   -0.0359 H   0  0  0  0  0  0  0  0  0  0  0  0
    3.7431    2.8470    0.0181 H   0  0  0  0  0  0  0  0  0  0  0  0
    4.8095    3.0273    1.3905 H   0  0  0  0  0  0  0  0  0  0  0  0
    5.1729    3.8430   -0.1114 H   0  0  0  0  0  0  0  0  0  0  0  0
    5.0848   -3.3868    2.8812 H   0  0  0  0  0  0  0  0  0  0  0  0
    7.2841   -3.0202    3.7511 H   0  0  0  0  0  0  0  0  0  0  0  0
    8.6115   -1.0635    2.9626 H   0  0  0  0  0  0  0  0  0  0  0  0
    7.6452    0.4291    1.2961 H   0  0  0  0  0  0  0  0  0  0  0  0
    4.0238    1.2705    0.8634 H   0  0  0  0  0  0  0  0  0  0  0  0
    2.6156    1.5952   -0.1188 H   0  0  0  0  0  0  0  0  0  0  0  0
    2.4275    0.9226    1.4828 H   0  0  0  0  0  0  0  0  0  0  0  0
    4.2703   -1.7605   -2.0462 H   0  0  0  0  0  0  0  0  0  0  0  0
    3.7878   -0.1114   -2.3635 H   0  0  0  0  0  0  0  0  0  0  0  0
    5.1960   -0.4361   -1.3813 H   0  0  0  0  0  0  0  0  0  0  0  0
    1.4805   -2.3686   -0.9636 H   0  0  0  0  0  0  0  0  0  0  0  0
    0.8098   -1.3921    0.3208 H   0  0  0  0  0  0  0  0  0  0  0  0
    0.9979   -0.7195   -1.2809 H   0  0  0  0  0  0  0  0  0  0  0  0
    6.8886    0.9365   -2.1452 H   0  0  0  0  0  0  0  0  0  0  0  0
    8.1981    1.0478   -0.9937 H   0  0  0  0  0  0  0  0  0  0  0  0
    8.1135   -0.3085   -2.0921 H   0  0  0  0  0  0  0  0  0  0  0  0
    4.9351    0.0860    1.4844 H   0  0  0  0  0  0  0  0  0  0  0  0
    6.1764    1.2987    1.2811 H   0  0  0  0  0  0  0  0  0  0  0  0
    4.8669    1.1873    0.1296 H   0  0  0  0  0  0  0  0  0  0  0  0
    7.0758   -2.0897    1.5773 H   0  0  0  0  0  0  0  0  0  0  0  0
    8.2326   -2.2333    0.2756 H   0  0  0  0  0  0  0  0  0  0  0  0
    8.3172   -0.8770    1.3739 H   0  0  0  0  0  0  0  0  0  0  0  0
  1  2  1  0  0  0  0
  2  3  1  0  0  0  0
  2  4  1  0  0  0  0
  2  5  1  0  0  0  0
  2  6  1  0  0  0  0
  2 11  1  0  0  0  0
  2 12  1  0  0  0  0
  2 19  1  0  0  0  0
  2 20  1  0  0  0  0
  2 21  1  0  0  0  0
  2 22  1  0  0  0  0
  2 27  1  0  0  0  0
  4  5  1  0  0  0  0
  4 12  2  0  0  0  0
  5  6  2  0  0  0  0
  5 32  1  0  0  0  0
  6  7  1  0  0  0  0
  6 11  1  0  0  0  0
  7  8  2  0  0  0  0
  7 36  1  0  0  0  0
  8  9  1  0  0  0  0
  8 37  1  0  0  0  0
  9 10  2  0  0  0  0
  9 38  1  0  0  0  0
 10 11  1  0  0  0  0
 10 39  1  0  0  0  0
 11 12  1  0  0  0  0
 12 13  1  0  0  0  0
 13 14  1  0  0  0  0
 13 15  1  0  0  0  0
 13 16  1  0  0  0  0
 14 40  1  0  0  0  0
 14 41  1  0  0  0  0
 14 42  1  0  0  0  0
 15 43  1  0  0  0  0
 15 44  1  0  0  0  0
 15 45  1  0  0  0  0
 16 17  1  0  0  0  0
 16 18  1  0  0  0  0
 16 19  1  0  0  0  0
 17 46  1  0  0  0  0
 17 47  1  0  0  0  0
 17 48  1  0  0  0  0
 18 49  1  0  0  0  0
 18 50  1  0  0  0  0
 18 51  1  0  0  0  0
 19 20  1  0  0  0  0
 19 27  2  0  0  0  0
 20 21  1  0  0  0  0
 21 22  2  0  0  0  0
 21 28  1  0  0  0  0
 22 23  1  0  0  0  0
 22 27  1  0  0  0  0
 23 24  2  0  0  0  0
 23 52  1  0  0  0  0
 24 25  1  0  0  0  0
 24 53  1  0  0  0  0
 25 26  2  0  0  0  0
 25 54  1  0  0  0  0
 26 27  1  0  0  0  0
 26 55  1  0  0  0  0
 28 29  1  0  0  0  0
 28 30  1  0  0  0  0
 28 31  1  0  0  0  0
 29 56  1  0  0  0  0
 29 57  1  0  0  0  0
 29 58  1  0  0  0  0
 30 59  1  0  0  0  0
 30 60  1  0  0  0  0
 30 61  1  0  0  0  0
 31 62  1  0  0  0  0
 31 63  1  0  0  0  0
 31 64  1  0  0  0  0
 32 33  1  0  0  0  0
 32 34  1  0  0  0  0
 32 35  1  0  0  0  0
 33 65  1  0  0  0  0
 33 66  1  0  0  0  0
 33 67  1  0  0  0  0
 34 68  1  0  0  0  0
 34 69  1  0  0  0  0
 34 70  1  0  0  0  0
 35 71  1  0  0  0  0
 35 72  1  0  0  0  0
 35 73  1  0  0  0  0
M  END
$$$$
