
  --CCDC--092525    3D                              

 62 63  0  0  0  0  0  0  0  0999 V2000
   -0.0353    0.0963   -0.0773 C      0
    1.9071    0.0516   -0.7053 Pt     0
    2.1299   -1.6872    0.3382 C      0
    3.8573   -0.0755   -1.2919 C      0
    1.3488   -0.9783   -2.3760 N      0
    0.3230   -0.5727   -3.1725 N      0
    0.2529   -1.5032   -4.1019 C      0
   -0.8126   -1.4373   -5.1493 C      0
   -2.0270   -2.2924   -4.8192 C      0
   -1.7599   -3.6631   -4.2389 C      0
   -0.8633   -4.5860   -5.0866 C      0
    0.4955   -4.8489   -4.4899 C      0
    1.5544   -3.7610   -4.5842 C      0
    1.2440   -2.4742   -3.8611 C      0
    1.9269   -2.1424   -2.7814 N      0
    2.5682    1.2712    1.2730 P      0
    1.3712    2.5834    1.6260 C      0
    4.2596    1.9144    1.1855 C      0
    2.5337    0.1717    2.7088 C      0
    1.7370    2.1042   -1.9838 P      0
    0.0653    2.7960   -1.9865 C      0
    2.2270    1.8262   -3.7044 C      0
    2.8820    3.3876   -1.4261 C      0
   -0.3620    1.1096    0.1277 H      0
   -0.6697   -0.3389   -0.8467 H      0
   -0.1257   -0.4941    0.8327 H      0
    1.4240   -1.7085    1.1660 H      0
    3.1454   -1.7558    0.7205 H      0
    1.9383   -2.5315   -0.3214 H      0
    3.9509   -0.8243   -2.0754 H      0
    4.4729   -0.3640   -0.4425 H      0
    4.1882    0.8894   -1.6693 H      0
   -0.3925   -1.7814   -6.0932 H      0
   -1.1349   -0.4021   -5.2513 H      0
   -2.5933   -2.4291   -5.7392 H      0
   -2.6312   -1.7422   -4.0993 H      0
   -2.7187   -4.1613   -4.1030 H      0
   -1.2803   -3.5285   -3.2705 H      0
   -0.7236   -4.1233   -6.0625 H      0
   -1.3735   -5.5405   -5.2071 H      0
    0.8977   -5.7322   -4.9838 H      0
    0.3462   -5.0608   -3.4322 H      0
    1.6976   -3.5254   -5.6378 H      0
    2.4802   -4.1601   -4.1725 H      0
    0.8556    2.9191    0.7313 H      0
    1.8627    3.4419    2.0787 H      0
    0.6154    2.2252    2.3219 H      0
    4.3216    2.8538    0.6473 H      0
    4.9131    1.2018    0.6869 H      0
    4.6528    2.0811    2.1863 H      0
    1.6390   -0.4470    2.7018 H      0
    3.4025   -0.4819    2.7227 H      0
    2.5370    0.7500    3.6304 H      0
    0.0221    3.7027   -2.5860 H      0
   -0.2523    3.0415   -0.9752 H      0
   -0.6447    2.0825   -2.3996 H      0
    1.3909    1.5250   -4.3276 H      0
    2.9917    1.0546   -3.7646 H      0
    2.6402    2.7387   -4.1292 H      0
    2.7020    4.3171   -1.9620 H      0
    3.9105    3.0875   -1.6147 H      0
    2.7872    3.5913   -0.3643 H      0
  1  2  1
  2  3  1
  2  4  1
  2  5  1
  5  6  1
  6  7  2
  7  8  1
  8  9  1
  9 10  1
 10 11  1
 11 12  1
 12 13  1
 13 14  1
  7 14  1
 14 15  2
  5 15  1
  2 16  1
 16 17  1
 16 18  1
 16 19  1
  2 20  1
 20 21  1
 20 22  1
 20 23  1
  1 24  1
  1 25  1
  1 26  1
  3 27  1
  3 28  1
  3 29  1
  4 30  1
  4 31  1
  4 32  1
  8 33  1
  8 34  1
  9 35  1
  9 36  1
 10 37  1
 10 38  1
 11 39  1
 11 40  1
 12 41  1
 12 42  1
 13 43  1
 13 44  1
 17 45  1
 17 46  1
 17 47  1
 18 48  1
 18 49  1
 18 50  1
 19 51  1
 19 52  1
 19 53  1
 21 54  1
 21 55  1
 21 56  1
 22 57  1
 22 58  1
 22 59  1
 23 60  1
 23 61  1
 23 62  1
M  END
$$$$
