
  --CCDC--092525    3D                              

 70 72  0  0  0  0  0  0  0  0999 V2000
   -0.1062    0.2283    0.0353 C      0
    1.2630    0.1483   -0.4539 C      0
    2.3345    0.0514   -0.8375 N      0
    4.1383   -0.1117   -1.4835 Co     3
    5.2998    0.1902    0.0294 C      0
    5.9819   -0.4475    1.2231 C      0
    5.7763   -1.7839    1.5500 C      0
    6.2386   -2.2941    2.7521 C      0
    6.9914   -1.5077    3.5961 C      0
    7.3165   -0.2231    3.2212 C      0
    6.8254    0.3021    2.0383 C      0
    5.1021    1.2504   -0.5212 C      0
    5.3551    2.7280   -0.4328 C      0
    5.4347    3.5166   -1.5750 C      0
    5.6528    4.8813   -1.4858 C      0
    5.7992    5.4819   -0.2553 C      0
    5.7289    4.7166    0.8875 C      0
    5.5040    3.3524    0.8023 C      0
    5.7169   -0.8301   -3.0314 P      0
    7.0797   -1.7647   -2.2810 C      0
    6.7792    0.5082   -3.6401 C      0
    4.9938   -1.7459   -4.4148 C      0
    3.4417   -2.3209   -1.3496 P      0
    2.2307   -2.7679   -2.6147 C      0
    4.7306   -3.5774   -1.4701 C      0
    2.6170   -2.6706    0.2275 C      0
    3.0604    0.9540   -3.2399 P      0
    1.8455   -0.1019   -4.0617 C      0
    4.0730    1.6147   -4.5807 C      0
    2.1269    2.3845   -2.6340 C      0
   -0.5973    1.1200   -0.3488 H      0
   -0.1259    0.2686    1.1223 H      0
   -0.6829   -0.6386   -0.2818 H      0
    5.2478   -2.4313    0.8607 H      0
    6.0055   -3.3166    3.0308 H      0
    7.3364   -1.9024    4.5459 H      0
    7.9556    0.3813    3.8562 H      0
    7.1073    1.3066    1.7448 H      0
    5.3181    3.0587   -2.5495 H      0
    5.7067    5.4801   -2.3890 H      0
    5.9655    6.5523   -0.1864 H      0
    5.8438    5.1862    1.8590 H      0
    5.4202    2.7712    1.7126 H      0
    8.0159   -1.4932   -2.7651 H      0
    6.9937   -2.8387   -2.3684 H      0
    7.1763   -1.5184   -1.2257 H      0
    6.5185    0.8749   -4.6223 H      0
    7.8054    0.1533   -3.7106 H      0
    6.7721    1.3481   -2.9487 H      0
    4.4982   -2.6502   -4.0682 H      0
    5.7644   -2.0354   -5.1256 H      0
    4.2592   -1.1399   -4.9410 H      0
    2.0304   -3.8371   -2.5879 H      0
    2.5933   -2.5208   -3.6089 H      0
    1.2890   -2.2515   -2.4469 H      0
    5.0556   -3.6982   -2.5015 H      0
    5.5915   -3.3090   -0.8612 H      0
    4.3589   -4.5404   -1.1259 H      0
    2.5993   -3.7441    0.4064 H      0
    1.5854   -2.3339    0.2281 H      0
    3.1207   -2.2023    1.0688 H      0
    1.2535    0.4795   -4.7650 H      0
    1.1639   -0.5423   -3.3390 H      0
    2.3318   -0.9002   -4.6167 H      0
    4.4470    0.8149   -5.2159 H      0
    4.9213    2.1756   -4.1974 H      0
    3.4854    2.2860   -5.2032 H      0
    1.8756    3.0472   -3.4592 H      0
    2.6991    2.9587   -1.9121 H      0
    1.1941    2.0926   -2.1635 H      0
  1  2  1
  2  3  3
  3  4  1
  4  5  1
  5  6  1
  6  7  4
  7  8  4
  8  9  4
  9 10  4
 10 11  4
  6 11  4
  5 12  3
  4 12  1
 12 13  1
 13 14  4
 14 15  4
 15 16  4
 16 17  4
 17 18  4
 13 18  4
  4 19  1
 19 20  1
 19 21  1
 19 22  1
  4 23  1
 23 24  1
 23 25  1
 23 26  1
  4 27  1
 27 28  1
 27 29  1
 27 30  1
  1 31  1
  1 32  1
  1 33  1
  7 34  1
  8 35  1
  9 36  1
 10 37  1
 11 38  1
 14 39  1
 15 40  1
 16 41  1
 17 42  1
 18 43  1
 20 44  1
 20 45  1
 20 46  1
 21 47  1
 21 48  1
 21 49  1
 22 50  1
 22 51  1
 22 52  1
 24 53  1
 24 54  1
 24 55  1
 25 56  1
 25 57  1
 25 58  1
 26 59  1
 26 60  1
 26 61  1
 28 62  1
 28 63  1
 28 64  1
 29 65  1
 29 66  1
 29 67  1
 30 68  1
 30 69  1
 30 70  1
M  CHG  1   4   1
M  END
$$$$
