
  --CCDC--092525    3D                              

111119  0  0  0  0  0  0  0  0999 V2000
   -2.0996   -2.2473   -0.2503 H      0
   -2.1765   -1.4164   -0.9442 C      0
   -1.3002   -0.4399   -0.9998 N      0
    0.0801   -0.3299   -0.6351 C      0
    0.4501   -1.1703   -0.0214 H      0
    0.3372    0.9017    0.2086 C      0
   -0.0797    0.9916    1.5320 C      0
   -0.5918    0.1589    2.0015 H      0
    0.1417    2.1422    2.2703 C      0
   -0.1858    2.1929    3.3036 H      0
    0.7724    3.2237    1.6969 C      0
    0.9386    4.1272    2.2742 H      0
    1.1932    3.1509    0.3873 C      0
    1.6918    4.0001   -0.0680 H      0
    0.9797    1.9979   -0.3500 C      0
    1.3126    1.9535   -1.3816 H      0
    0.8339   -0.4163   -1.9870 C      0
    1.9039   -0.3053   -1.7160 H      0
    0.7548   -1.7607   -2.6930 C      0
    0.4067   -2.9047   -1.9802 C      0
    0.1835   -2.8428   -0.9224 H      0
    0.3477   -4.1472   -2.5881 C      0
    0.0770   -5.0215   -2.0052 H      0
    0.6340   -4.2782   -3.9269 C      0
    0.5899   -5.2519   -4.4033 H      0
    0.9771   -3.1626   -4.6552 C      0
    1.2030   -3.2585   -5.7123 H      0
    1.0380   -1.9190   -4.0477 C      0
    1.3142   -1.0695   -4.6581 H      0
    0.3149    0.6341   -2.8303 N      0
    0.9161    1.2951   -3.7998 C      0
    1.5772    0.8283   -4.5219 H      0
    0.6108    2.7468   -3.8061 C      0
    0.8482    3.1540   -2.8178 H      0
    1.2497    3.2487   -4.5413 H      0
   -1.1514    2.8456   -4.2302 P      0
   -2.5519    3.9626   -4.5384 C      0
   -3.3352    4.5115   -3.5202 C      0
   -3.1682    4.2030   -2.4935 H      0
   -4.3165    5.4473   -3.8018 C      0
   -4.9149    5.8478   -2.9899 H      0
   -4.5479    5.8895   -5.0941 C      0
   -5.5953    6.9364   -5.3888 C      0
   -5.3653    7.4607   -6.3144 H      0
   -5.6448    7.6707   -4.5866 H      0
   -6.5777    6.4799   -5.4930 H      0
   -3.7683    5.3535   -6.1049 C      0
   -3.9275    5.6835   -7.1265 H      0
   -2.7884    4.4125   -5.8405 C      0
   -2.1892    4.0257   -6.6583 H      0
   -0.5455    4.5290   -3.8654 C      0
   -0.0173    5.3342   -4.8823 C      0
   -0.0228    4.9730   -5.9054 H      0
    0.5380    6.5725   -4.6046 C      0
    0.9621    7.1570   -5.4144 H      0
    0.5739    7.0791   -3.3163 C      0
    1.2403    8.3964   -3.0026 C      0
    1.9760    8.2760   -2.2091 H      0
    0.5059    9.1298   -2.6755 H      0
    1.7499    8.7899   -3.8804 H      0
   -0.0204    6.3272   -2.3193 C      0
   -0.0452    6.7146   -1.3062 H      0
   -0.5761    5.0889   -2.5837 C      0
   -1.0292    4.5343   -1.7773 H      0
   -1.7994    1.1023   -2.4472 Fe     0
   -1.9265    2.5236   -0.7701 N      0
   -1.9924    3.2613    0.1004 C      0
   -2.0668    4.2236    1.1915 C      0
   -2.1388    3.7127    2.1493 H      0
   -2.9391    4.8668    1.0839 H      0
   -1.1798    4.8538    1.2059 H      0
   -3.9032    1.7499   -2.5068 N      0
   -5.0016    2.0619   -2.4943 C      0
   -6.4105    2.4280   -2.4778 C      0
   -6.9448    1.9387   -3.2893 H      0
   -6.5288    3.5032   -2.5930 H      0
   -6.8772    2.1338   -1.5401 H      0
   -2.7160   -0.9989   -3.6145 P      0
   -2.9825    0.0190   -5.0964 C      0
   -1.9718    0.0126   -6.0592 C      0
   -1.0704   -0.5645   -5.8809 H      0
   -2.1054    0.7185   -7.2417 C      0
   -1.3068    0.6808   -7.9752 H      0
   -3.2361    1.4702   -7.5106 C      0
   -3.3962    2.2149   -8.8135 C      0
   -2.5948    1.9632   -9.5048 H      0
   -3.3761    3.2899   -8.6477 H      0
   -4.3431    1.9634   -9.2869 H      0
   -4.2241    1.5095   -6.5434 C      0
   -5.1159    2.1013   -6.7219 H      0
   -4.1083    0.8054   -5.3587 C      0
   -4.9216    0.8610   -4.6518 H      0
   -4.3679   -1.6025   -4.0750 C      0
   -4.4373   -2.4884   -5.1512 C      0
   -3.5251   -2.7813   -5.6609 H      0
   -5.6473   -3.0071   -5.5721 C      0
   -5.6663   -3.6997   -6.4065 H      0
   -6.8340   -2.6656   -4.9490 C      0
   -8.1480   -3.2436   -5.4147 C      0
   -8.0926   -3.5268   -6.4639 H      0
   -8.4062   -4.1294   -4.8380 H      0
   -8.9507   -2.5182   -5.3012 H      0
   -6.7757   -1.7604   -3.9030 C      0
   -7.6950   -1.4637   -3.4103 H      0
   -5.5760   -1.2201   -3.4731 C      0
   -5.5941   -0.4862   -2.6754 H      0
   -3.3139   -1.2584   -1.9091 C      0
   -3.9101   -2.1776   -1.8637 H      0
   -3.9691   -0.4451   -1.5812 H      0
   -1.0267    2.3221   -5.5212 H      0
   -1.7271   -1.9486   -3.8917 H      0
  1  2  1
  2  3  2
  3  4  1
  4  5  1
  4  6  1
  6  7  4
  7  8  1
  7  9  4
  9 10  1
  9 11  4
 11 12  1
 11 13  4
 13 14  1
 13 15  4
  6 15  4
 15 16  1
  4 17  1
 17 18  1
 17 19  1
 19 20  4
 20 21  1
 20 22  4
 22 23  1
 22 24  4
 24 25  1
 24 26  4
 26 27  1
 26 28  4
 19 28  4
 28 29  1
 17 30  1
 30 31  2
 31 32  1
 31 33  1
 33 34  1
 33 35  1
 33 36  1
 36 37  1
 37 38  4
 38 39  1
 38 40  4
 40 41  1
 40 42  4
 42 43  1
 43 44  1
 43 45  1
 43 46  1
 42 47  4
 47 48  1
 47 49  4
 37 49  4
 49 50  1
 36 51  1
 51 52  4
 52 53  1
 52 54  4
 54 55  1
 54 56  4
 56 57  1
 57 58  1
 57 59  1
 57 60  1
 56 61  4
 61 62  1
 61 63  4
 51 63  4
 63 64  1
 36 65  1
  3 65  1
 30 65  1
 65 66  1
 66 67  3
 67 68  1
 68 69  1
 68 70  1
 68 71  1
 65 72  1
 72 73  3
 73 74  1
 74 75  1
 74 76  1
 74 77  1
 65 78  1
 78 79  1
 79 80  4
 80 81  1
 80 82  4
 82 83  1
 82 84  4
 84 85  1
 85 86  1
 85 87  1
 85 88  1
 84 89  4
 89 90  1
 89 91  4
 79 91  4
 91 92  1
 78 93  1
 93 94  4
 94 95  1
 94 96  4
 96 97  1
 96 98  4
 98 99  1
 99100  1
 99101  1
 99102  1
 98103  4
103104  1
103105  4
 93105  4
105106  1
 78107  1
  2107  1
107108  1
107109  1
 36110  1
 78111  1
M  END
$$$$
