
     RDKit          3D

 23 24  0  0  0  0  0  0  0  0999 V2000
    4.6258   -0.6069   -0.0871 O   0  0  0  0  0  0  0  0  0  0  0  0
    3.5506   -0.3691    0.4021 C   0  0  0  0  0  0  0  0  0  0  0  0
    2.2440   -1.1242    0.6916 C   0  0  0  0  0  0  0  0  0  0  0  0
    1.6444    0.2737    0.8941 C   0  0  0  0  0  0  0  0  0  0  0  0
    3.0327    0.8032    0.8656 N   0  0  0  0  0  0  0  0  0  0  0  0
    0.7776    1.0072   -0.5114 S   0  0  0  0  0  0  0  0  0  0  0  0
    1.3387    0.4940   -1.7496 O   0  0  0  0  0  0  0  0  0  0  0  0
    0.7050    2.4454   -0.3108 O   0  0  0  0  0  0  0  0  0  0  0  0
   -0.8961    0.3997   -0.4247 C   0  0  0  0  0  0  0  0  0  0  0  0
   -1.8360    1.0874    0.3479 C   0  0  0  0  0  0  0  0  0  0  0  0
   -3.1430    0.6067    0.4201 C   0  0  0  0  0  0  0  0  0  0  0  0
   -3.5042   -0.5451   -0.2815 C   0  0  0  0  0  0  0  0  0  0  0  0
   -2.5636   -1.2172   -1.0643 C   0  0  0  0  0  0  0  0  0  0  0  0
   -1.2541   -0.7443   -1.1430 C   0  0  0  0  0  0  0  0  0  0  0  0
    2.2908   -1.7486    1.5881 H   0  0  0  0  0  0  0  0  0  0  0  0
    1.8597   -1.7050   -0.1493 H   0  0  0  0  0  0  0  0  0  0  0  0
    1.1447    0.4542    1.8498 H   0  0  0  0  0  0  0  0  0  0  0  0
    3.3526    1.6399    0.3862 H   0  0  0  0  0  0  0  0  0  0  0  0
   -1.5677    1.9959    0.8830 H   0  0  0  0  0  0  0  0  0  0  0  0
   -3.8856    1.1346    1.0142 H   0  0  0  0  0  0  0  0  0  0  0  0
   -4.5267   -0.9129   -0.2288 H   0  0  0  0  0  0  0  0  0  0  0  0
   -2.8566   -2.1041   -1.6218 H   0  0  0  0  0  0  0  0  0  0  0  0
   -0.5331   -1.2643   -1.7703 H   0  0  0  0  0  0  0  0  0  0  0  0
  1  2  2  0
  2  3  1  0
  3  4  1  0
  4  5  1  0
  4  6  1  0
  6  7  2  0
  6  8  2  0
  6  9  1  0
  9 10  2  0
 10 11  1  0
 11 12  2  0
 12 13  1  0
 13 14  2  0
  5  2  1  0
 14  9  1  0
  3 15  1  0
  3 16  1  0
  4 17  1  0
  5 18  1  0
 10 19  1  0
 11 20  1  0
 12 21  1  0
 13 22  1  0
 14 23  1  0
M  END
