
  --CCDC--092525    3D                              

 39 44  0  0  0  0  0  0  0  0999 V2000
    0.4186   -0.5001    0.5901 C      0
    1.8291   -0.0951   -0.5683 Si     0
    2.9239   -1.6109   -0.5749 C      0
    1.0580    0.0106   -2.2684 C      0
    2.7153    1.4076   -0.0878 C      0
    3.7817    1.8956   -0.8453 C      0
    5.3477    2.6718   -1.9573 Cr     0
    4.8409    0.7220   -2.4315 C      0
    4.5635   -0.3522   -2.6905 O      0
    3.5658    2.4580   -2.9885 C      0
    2.5865    2.3401   -3.5593 O      0
    6.0170    3.7123   -3.3661 C      0
    6.9069    2.4954   -2.9835 C      0
    7.0662    2.0864   -1.4892 C      0
    6.3358    2.8949   -0.3796 C      0
    5.4452    4.1137   -0.7628 C      0
    5.2856    4.5219   -2.2551 C      0
    2.2420    2.2769    1.4256 Si     0
    2.3677    1.2063    2.9532 C      0
    0.4764    2.8898    1.3742 C      0
    3.2989    3.7834    1.7561 C      0
   -0.2432    0.3554    0.7063 H      0
    0.7927   -0.7770    1.5734 H      0
   -0.1688   -1.3311    0.2051 H      0
    3.8952   -1.3914   -0.1378 H      0
    3.0823   -1.9672   -1.5907 H      0
    2.4696   -2.4160   -0.0011 H      0
    0.3988   -0.8366   -2.4456 H      0
    1.8209    0.0136   -3.0433 H      0
    0.4718    0.9217   -2.3686 H      0
    1.6330    0.4043    2.9236 H      0
    2.1907    1.7945    3.8513 H      0
    3.3557    0.7584    3.0320 H      0
   -0.2152    2.0971    1.6516 H      0
    0.2161    3.2324    0.3749 H      0
    0.3358    3.7192    2.0642 H      0
    4.3447    3.5051    1.8673 H      0
    2.9825    4.2835    2.6690 H      0
    3.2231    4.4948    0.9364 H      0
  1  2  1
  2  3  1
  2  4  1
  2  5  1
  5  6  4
  6  7  4
  7  8  1
  8  9  3
  7 10  1
 10 11  3
  7 12  1
 12 13  4
  7 13  1
 13 14  4
  7 14  1
 14 15  4
  7 15  1
 15 16  4
  7 16  1
 16 17  4
  7 17  1
 12 17  4
  5 18  1
 18 19  1
 18 20  1
 18 21  1
  1 22  1
  1 23  1
  1 24  1
  3 25  1
  3 26  1
  3 27  1
  4 28  1
  4 29  1
  4 30  1
 19 31  1
 19 32  1
 19 33  1
 20 34  1
 20 35  1
 20 36  1
 21 37  1
 21 38  1
 21 39  1
M  END
$$$$
