
  --CCDC--092525    3D                              

 68 74  0  0  0  0  0  0  0  0999 V2000
    1.8959    5.1172   -3.1461 H      0
    1.8095    4.2219   -2.5390 C      0
    1.6800    4.5630   -1.4955 H      0
    0.8743    3.7801   -2.9201 H      0
    3.3001    3.1925   -2.6908 S      0
    3.7006    2.0560   -1.7589 O      0
    2.4656    0.0107   -0.4286 U      3
    2.0473   -2.2464   -1.8141 O      0
    2.5568   -3.5676   -1.5173 S      0
    2.7571   -4.3611   -3.0893 C      0
    1.7701   -4.5520   -3.5143 H      0
    3.3261   -5.2791   -2.9535 H      0
    3.3363   -3.7364   -3.7689 H      0
    1.2288   -4.4654   -0.7598 C      0
    0.4155   -4.5393   -1.5093 H      0
    0.8803   -3.8956    0.1042 H      0
    1.6238   -5.4162   -0.3649 H      0
    0.2244   -1.1189   -1.3400 O      0
   -1.0330   -0.5404   -1.0893 C      0
   -2.0468   -0.5665   -1.7339 O      0
   -1.0544   -0.0487    0.2930 C      0
   -1.3113    0.9851    0.0951 H      0
   -1.8440   -0.5211    0.8992 H      0
    0.2964   -0.3680    0.6765 N      0
    0.4376   -1.1518    1.7459 C      0
   -0.5344   -1.6765    1.7841 H      0
    1.2969   -1.8024    1.4646 H      0
    0.6368    0.1898    2.4065 C      0
   -0.2662    0.5782    2.8368 H      0
    1.1094   -0.1086    3.3085 H      0
    1.4035    1.1785    1.6137 N      0
    2.5043    1.6258    2.4980 C      0
    2.4963    0.9476    3.3476 H      0
    2.2523    2.5655    2.9943 H      0
    4.0072    1.6090    2.1031 C      0
    4.7611    2.0119    2.9880 O      0
    4.4564    1.2292    0.8128 O      0
    0.7602    2.0618    0.5669 C      0
   -0.1030    2.5136    1.0073 H      0
    1.3886    2.8910    0.6081 H      0
    0.5803    2.0156   -1.0898 C      0
   -0.4190    1.7114   -1.4460 H      0
    0.4830    3.0917   -1.1432 H      0
    1.6718    1.6196   -2.1213 N      0
    2.6525    1.9377   -1.8693 H      0
    1.9474    0.4690   -3.1017 C      0
    1.1056   -0.1692   -3.3131 H      0
    2.0935    0.9331   -4.0765 H      0
    3.3070   -0.4281   -2.9261 C      0
    3.2840   -1.1575   -3.7386 H      0
    4.1712    0.1782   -3.1726 H      0
    3.6826   -1.3980   -1.8399 N      0
    5.0139   -1.4297   -1.2509 C      0
    5.5262   -0.4906   -1.4145 H      0
    5.6395   -2.1605   -1.7592 H      0
    5.1868   -1.6222    0.3010 C      0
    6.1982   -2.1798    0.7053 O      0
    4.1998   -1.1602    1.2164 O      0
    2.7483   -1.1443   -0.5638 C      0
    2.5159   -1.9524    0.0866 H      0
    3.4504   -0.5978   -0.0087 H      0
    1.5787   -0.0043   -0.2468 C      0
    1.6643    0.9427   -0.7401 H      0
    2.2450    0.3788    0.5030 H      0
    4.0729    4.6022   -1.9293 C      0
    3.9412    5.4708   -2.5707 H      0
    5.1368    4.4616   -1.7636 H      0
    3.5976    4.8283   -0.9689 H      0
  1  2  1
  2  3  1
  2  4  1
  2  5  1
  5  6  2
  6  7  1
  7  8  1
  8  9  2
  9 10  1
 10 11  1
 10 12  1
 10 13  1
  9 14  1
 14 15  1
 14 16  1
 14 17  1
  7 18  1
 18 19  1
 19 20  2
 19 21  1
 21 22  1
 21 23  1
 21 24  1
  7 24  1
 24 25  1
 25 26  1
 25 27  1
 25 28  1
 28 29  1
 28 30  1
 28 31  1
  7 31  1
 31 32  1
 32 33  1
 32 34  1
 32 35  1
 35 36  2
 35 37  1
  7 37  1
 31 38  1
 38 39  1
 38 40  1
 38 41  1
 41 42  1
 41 43  1
 41 44  1
  7 44  1
 44 45  1
 44 46  1
 46 47  1
 46 48  1
 46 49  1
 49 50  1
 49 51  1
 49 52  1
  7 52  1
 52 53  1
 53 54  1
 53 55  1
 53 56  1
 56 57  2
 56 58  1
  7 58  1
 52 59  1
 59 60  1
 59 61  1
 59 62  1
 24 62  1
 62 63  1
 62 64  1
  5 65  1
 65 66  1
 65 67  1
 65 68  1
M  CHG  1   7   1
M  END
$$$$
