
 OpenBabel09252517143D

 68 74  0  0  1  0  0  0  0  0999 V2000
    0.9307    0.0721    0.0011 H   0  0  0  0  0  0  0  0  0  0  0  0
    2.0007    0.0721    0.0011 C   0  0  0  0  0  0  0  0  0  0  0  0
    2.3574   -0.9357    0.0461 H   0  0  0  0  0  0  0  0  0  0  0  0
    2.3574    0.5370   -0.8942 H   0  0  0  0  0  0  0  0  0  0  0  0
    2.6040    0.9904    1.4394 S   0  0  0  0  0  0  0  0  0  0  0  0
    2.0939    0.3254    2.7199 O   0  0  0  0  0  0  0  0  0  0  0  0
   -0.4820    0.1048    3.1448 U   0  3  0  0  0  0  0  0  0  0  0  0
   -0.2974   -1.7528    1.3064 O   0  0  0  0  0  0  0  0  0  0  0  0
   -1.2520   -2.9474    1.3684 S   0  0  0  0  0  0  0  0  0  0  0  0
   -2.9617   -2.3578    1.2943 C   0  0  0  0  0  0  0  0  0  0  0  0
   -3.1160   -1.8252    0.3792 H   0  0  0  0  0  0  0  0  0  0  0  0
   -3.6292   -3.1930    1.3376 H   0  0  0  0  0  0  0  0  0  0  0  0
   -3.1507   -1.7068    2.1221 H   0  0  0  0  0  0  0  0  0  0  0  0
   -0.9323   -4.0486   -0.0320 C   0  0  0  0  0  0  0  0  0  0  0  0
   -1.0865   -3.5159   -0.9471 H   0  0  0  0  0  0  0  0  0  0  0  0
    0.0784   -4.3971    0.0118 H   0  0  0  0  0  0  0  0  0  0  0  0
   -1.5997   -4.8838    0.0114 H   0  0  0  0  0  0  0  0  0  0  0  0
    0.0173    1.1581    0.7984 O   0  0  0  0  0  0  0  0  0  0  0  0
    1.3213    1.6319    0.4958 C   0  0  0  0  0  0  0  0  0  0  0  0
    1.5244    2.7491   -0.0750 O   0  0  0  0  0  0  0  0  0  0  0  0
   -3.7272    0.8491    7.8395 C   0  0  0  0  0  0  0  0  0  0  0  0
   -4.1924    0.8799    8.8026 H   0  0  0  0  0  0  0  0  0  0  0  0
   -3.9987    0.7755    8.8719 H   0  0  0  0  0  0  0  0  0  0  0  0
   -3.5644    0.7739    6.3805 N   0  0  1  0  0  4  0  0  0  0  0  0
   -4.9803    1.2787    6.0962 C   0  0  0  0  0  0  0  0  0  0  0  0
   -5.6098    2.0081    6.5616 H   0  0  0  0  0  0  0  0  0  0  0  0
   -4.5236    2.1022    5.5881 H   0  0  0  0  0  0  0  0  0  0  0  0
   -5.8261    0.1454    5.5143 C   0  0  0  0  0  0  0  0  0  0  0  0
   -6.5714   -0.2717    6.1589 H   0  0  0  0  0  0  0  0  0  0  0  0
   -5.4613   -0.8599    5.5508 H   0  0  0  0  0  0  0  0  0  0  0  0
   -5.8371    0.2429    3.9876 N   0  0  1  0  0  4  0  0  0  0  0  0
    2.5390   -1.2777    4.5764 C   0  0  0  0  0  0  0  0  0  0  0  0
    3.4579   -1.0718    5.0845 H   0  0  0  0  0  0  0  0  0  0  0  0
    3.4084   -0.8315    4.1405 H   0  0  0  0  0  0  0  0  0  0  0  0
    1.5597   -2.4397    4.5442 C   0  0  0  0  0  0  0  0  0  0  0  0
    1.4310   -2.8444    5.7421 O   0  0  0  0  0  0  0  0  0  0  0  0
    0.2487   -2.2493    4.0328 O   0  0  0  0  0  0  0  0  0  0  0  0
   -5.7399   -1.1588    3.3844 C   0  0  0  0  0  0  0  0  0  0  0  0
   -6.4240   -1.7932    3.9084 H   0  0  0  0  0  0  0  0  0  0  0  0
   -5.0822   -2.0006    3.4453 H   0  0  0  0  0  0  0  0  0  0  0  0
   -5.1162   -1.0765    1.9901 C   0  0  0  0  0  0  0  0  0  0  0  0
   -6.0195   -0.6943    1.5625 H   0  0  0  0  0  0  0  0  0  0  0  0
   -4.4428   -0.6439    1.2800 H   0  0  0  0  0  0  0  0  0  0  0  0
   -3.8828   -1.9780    1.9256 N   0  0  2  0  0  4  0  0  0  0  0  0
   -4.3233   -2.8420    1.6094 H   0  0  0  0  0  0  0  0  0  0  0  0
   -2.6387   -1.1777    2.3165 C   0  0  0  0  0  0  0  0  0  0  0  0
   -3.2032   -0.2731    2.2276 H   0  0  0  0  0  0  0  0  0  0  0  0
   -1.6852   -1.0498    1.8482 H   0  0  0  0  0  0  0  0  0  0  0  0
   -1.9470   -1.8537    3.5031 C   0  0  0  0  0  0  0  0  0  0  0  0
   -2.4000   -2.6688    4.0279 H   0  0  0  0  0  0  0  0  0  0  0  0
   -1.3704   -2.6896    3.1658 H   0  0  0  0  0  0  0  0  0  0  0  0
   -0.9320   -0.8954    4.1276 N   0  0  1  0  0  4  0  0  0  0  0  0
    0.3423   -1.6402    4.4818 C   0  0  0  0  0  0  0  0  0  0  0  0
    0.3212   -2.2418    5.3664 H   0  0  0  0  0  0  0  0  0  0  0  0
    0.7647   -2.6208    4.4111 H   0  0  0  0  0  0  0  0  0  0  0  0
    1.3074   -1.0978    3.7147 C   0  0  0  0  0  0  0  0  0  0  0  0
    1.7886   -1.9992    2.9589 O   0  0  0  0  0  0  0  0  0  0  0  0
    0.8337   -0.1030    2.9562 O   0  0  0  0  0  0  0  0  0  0  0  0
   -1.5064   -0.2163    5.3715 C   0  0  0  0  0  0  0  0  0  0  0  0
   -1.4522   -0.1425    6.4375 H   0  0  0  0  0  0  0  0  0  0  0  0
   -0.4369   -0.2153    5.4025 H   0  0  0  0  0  0  0  0  0  0  0  0
   -2.8918    0.3568    5.0705 C   0  0  0  0  0  0  0  0  0  0  0  0
   -3.9114    0.4668    4.7652 H   0  0  0  0  0  0  0  0  0  0  0  0
   -2.3190    0.3561    4.1667 H   0  0  0  0  0  0  0  0  0  0  0  0
    4.4140    0.9904    1.4394 C   0  0  0  0  0  0  0  0  0  0  0  0
    4.7707   -0.0174    1.4844 H   0  0  0  0  0  0  0  0  0  0  0  0
    4.7707    1.4553    0.5441 H   0  0  0  0  0  0  0  0  0  0  0  0
    4.7707    1.5333    2.2897 H   0  0  0  0  0  0  0  0  0  0  0  0
  1  2  1  0  0  0  0
  2  3  1  0  0  0  0
  2  4  1  0  0  0  0
  2  5  1  0  0  0  0
  5  6  2  0  0  0  0
  5 65  1  0  0  0  0
  6  7  1  0  0  0  0
  7 18  1  0  0  0  0
  7 24  1  0  0  0  0
  7 31  1  0  0  0  0
  7 37  1  0  0  0  0
  7 44  1  0  0  0  0
  7 52  1  0  0  0  0
  7 58  1  0  0  0  0
  7  8  1  0  0  0  0
  8  9  2  0  0  0  0
  9 10  1  0  0  0  0
  9 14  1  0  0  0  0
 10 11  1  0  0  0  0
 10 12  1  0  0  0  0
 10 13  1  0  0  0  0
 14 15  1  0  0  0  0
 14 16  1  0  0  0  0
 14 17  1  0  0  0  0
 18 19  1  0  0  0  0
 19 21  1  0  0  0  0
 19 20  2  0  0  0  0
 21 22  1  0  0  0  0
 21 23  1  0  0  0  0
 24 21  1  1  0  0  0
 24 25  1  0  0  0  0
 24 62  1  0  0  0  0
 25 28  1  0  0  0  0
 25 26  1  0  0  0  0
 25 27  1  0  0  0  0
 28 29  1  0  0  0  0
 28 30  1  0  0  0  0
 31 28  1  6  0  0  0
 31 32  1  0  0  0  0
 31 38  1  0  0  0  0
 32 35  1  0  0  0  0
 32 33  1  0  0  0  0
 32 34  1  0  0  0  0
 35 37  1  0  0  0  0
 35 36  2  0  0  0  0
 38 41  1  0  0  0  0
 38 39  1  0  0  0  0
 38 40  1  0  0  0  0
 41 44  1  0  0  0  0
 41 42  1  0  0  0  0
 41 43  1  0  0  0  0
 44 46  1  0  0  0  0
 44 45  1  1  0  0  0
 46 49  1  0  0  0  0
 46 47  1  0  0  0  0
 46 48  1  0  0  0  0
 49 50  1  0  0  0  0
 49 51  1  0  0  0  0
 52 49  1  6  0  0  0
 52 53  1  0  0  0  0
 52 59  1  0  0  0  0
 53 56  1  0  0  0  0
 53 54  1  0  0  0  0
 53 55  1  0  0  0  0
 56 58  1  0  0  0  0
 56 57  2  0  0  0  0
 59 62  1  0  0  0  0
 59 60  1  0  0  0  0
 59 61  1  0  0  0  0
 62 63  1  0  0  0  0
 62 64  1  0  0  0  0
 65 66  1  0  0  0  0
 65 67  1  0  0  0  0
 65 68  1  0  0  0  0
M  CHG  1   7   1
M  END
$$$$
