
 OpenBabel09252515033D

 43 45  0  0  1  0  0  0  0  0999 V2000
    1.0473    0.0794    0.0382 H   0  0  0  0  0  0  0  0  0  0  0  0
    2.1173    0.0794    0.0382 C   0  0  0  0  0  3  0  0  0  0  0  0
    2.6296   -1.3036   -0.3709 C   0  0  0  0  0  3  0  0  0  0  0  0
    2.2404   -2.0410    0.2997 H   0  0  0  0  0  0  0  0  0  0  0  0
    2.1993   -1.5957   -1.7021 C   0  0  0  0  0  3  0  0  0  0  0  0
    2.5396   -2.5775   -1.9575 H   0  0  0  0  0  0  0  0  0  0  0  0
    2.6868   -0.6817   -2.6862 C   0  0  0  0  0  3  0  0  0  0  0  0
    4.2067   -0.6852   -2.6724 C   0  0  1  0  0  0  0  0  0  0  0  0
    4.5553   -0.3876   -1.7055 H   0  0  0  0  0  0  0  0  0  0  0  0
    4.7130   -2.0839   -2.9852 C   0  0  0  0  0  0  0  0  0  0  0  0
    4.3644   -2.3815   -3.9520 H   0  0  0  0  0  0  0  0  0  0  0  0
    5.7829   -2.0864   -2.9755 H   0  0  0  0  0  0  0  0  0  0  0  0
    4.3480   -2.7684   -2.2482 H   0  0  0  0  0  0  0  0  0  0  0  0
    4.7081    0.2552   -3.6849 N   0  0  0  0  0  4  0  0  0  0  0  0
    4.3757   -0.0285   -4.6066 H   0  0  0  0  0  0  0  0  0  0  0  0
    4.3683    1.1938   -3.4750 H   0  0  0  0  0  0  0  0  0  0  0  0
    6.7780    0.2504   -3.6661 Pt  0  0  0  0  0  0  0  0  0  0  0  0
    6.7901   -0.9918   -5.3219 N   0  0  0  0  0  0  0  0  0  0  0  0
    5.6546   -1.3840   -5.8584 C   0  0  0  0  0  0  0  0  0  0  0  0
    4.5577   -1.7628   -6.3767 O   0  0  0  0  0  0  0  0  0  0  0  0
    8.8979    0.2455   -3.6469 C   0  0  0  0  0  3  0  0  0  0  0  0
    9.4137   -1.0006   -4.3704 C   0  0  0  0  0  3  0  0  0  0  0  0
    9.0184   -1.8761   -3.8990 H   0  0  0  0  0  0  0  0  0  0  0  0
    8.9955   -0.9650   -5.7365 C   0  0  0  0  0  3  0  0  0  0  0  0
    9.3380   -1.8580   -6.2163 H   0  0  0  0  0  0  0  0  0  0  0  0
    9.4919    0.1567   -6.4692 C   0  0  0  0  0  3  0  0  0  0  0  0
   10.5617    0.1495   -6.4510 H   0  0  0  0  0  0  0  0  0  0  0  0
    8.9792    1.4497   -5.8306 C   0  0  0  0  0  3  0  0  0  0  0  0
    9.3840    2.2916   -6.3522 H   0  0  0  0  0  0  0  0  0  0  0  0
    9.4198    1.4949   -4.3641 C   0  0  0  0  0  3  0  0  0  0  0  0
   10.9376    1.5286   -4.2890 C   0  0  1  0  0  0  0  0  0  0  0  0
   11.2434    1.5602   -3.2641 H   0  0  0  0  0  0  0  0  0  0  0  0
   11.4532    2.7635   -5.0098 C   0  0  0  0  0  0  0  0  0  0  0  0
   12.4777    2.6172   -4.7381 H   0  0  0  0  0  0  0  0  0  0  0  0
   11.3564    2.7169   -6.0744 H   0  0  0  0  0  0  0  0  0  0  0  0
   11.1257    3.7215   -4.6635 H   0  0  0  0  0  0  0  0  0  0  0  0
    6.7658    1.4927   -2.0104 N   0  0  0  0  0  4  0  0  0  0  0  0
    7.5944    1.3119   -1.4436 H   0  0  0  0  0  0  0  0  0  0  0  0
    6.7684    2.4660   -2.3155 H   0  0  0  0  0  0  0  0  0  0  0  0
    2.1768    0.7264   -2.3707 C   0  0  0  0  0  3  0  0  0  0  0  0
    2.5751    1.4193   -3.0821 H   0  0  0  0  0  0  0  0  0  0  0  0
    2.6302    1.1210   -0.9616 C   0  0  0  0  0  3  0  0  0  0  0  0
    3.6990    1.1568   -0.9256 H   0  0  0  0  0  0  0  0  0  0  0  0
  1  2  1  0  0  0  0
  2  3  1  0  0  0  0
  2 42  1  0  0  0  0
  3  4  1  0  0  0  0
  3  5  1  0  0  0  0
  5  6  1  0  0  0  0
  5  7  1  0  0  0  0
  7  8  1  0  0  0  0
  7 40  1  0  0  0  0
  8  9  1  1  0  0  0
  8 10  1  0  0  0  0
  8 14  1  0  0  0  0
 10 11  1  0  0  0  0
 10 12  1  0  0  0  0
 10 13  1  0  0  0  0
 14 15  1  0  0  0  0
 14 16  1  0  0  0  0
 14 17  1  0  0  0  0
 17 18  1  0  0  0  0
 17 21  1  0  0  0  0
 17 37  1  0  0  0  0
 18 19  2  0  0  0  0
 19 20  2  0  0  0  0
 21 22  1  0  0  0  0
 21 30  1  0  0  0  0
 22 23  1  0  0  0  0
 22 24  1  0  0  0  0
 24 25  1  0  0  0  0
 24 26  1  0  0  0  0
 26 27  1  0  0  0  0
 26 28  1  0  0  0  0
 28 29  1  0  0  0  0
 28 30  1  0  0  0  0
 30 31  1  0  0  0  0
 31 37  1  0  0  0  0
 31 33  1  0  0  0  0
 31 32  1  6  0  0  0
 33 34  1  0  0  0  0
 33 35  1  0  0  0  0
 33 36  1  0  0  0  0
 37 38  1  0  0  0  0
 37 39  1  0  0  0  0
 40 41  1  0  0  0  0
 40 42  1  0  0  0  0
 42 43  1  0  0  0  0
M  END
$$$$
