
     RDKit          3D

  0  0  0  0  0  0  0  0  0  0999 V3000
M  V30 BEGIN CTAB
M  V30 COUNTS 43 45 0 0 0
M  V30 BEGIN ATOM
M  V30 1 C 5.322625 1.255416 0.006932 0
M  V30 2 C 4.239409 1.762396 -0.698224 0
M  V30 3 C 3.107489 0.970694 -0.675425 0
M  V30 4 C 2.944552 -0.236822 -0.042765 0
M  V30 5 C 1.697834 -1.021088 -0.045278 0 CFG=1
M  V30 6 C 1.893827 -2.364946 0.650604 0
M  V30 7 N 0.550650 -0.362011 0.505849 0
M  V30 8 Pt -0.276827 1.024894 -0.703023 0 CFG=1 VAL=4
M  V30 9 N -1.275604 2.342306 -1.908612 0
M  V30 10 C -2.138556 3.095367 -1.373292 0
M  V30 11 O -3.085694 3.704075 -0.924094 0
M  V30 12 C -1.949026 1.121095 0.726026 0
M  V30 13 C -2.445403 1.783510 1.787239 0
M  V30 14 C -3.684251 1.353862 2.191012 0
M  V30 15 C -4.315778 0.332455 1.530632 0
M  V30 16 C -3.847739 -0.373168 0.444655 0
M  V30 17 C -2.571223 0.042689 0.002767 0
M  V30 18 C -2.036840 -0.824506 -1.135227 0 CFG=1
M  V30 19 C -3.123141 -1.479362 -1.897376 0
M  V30 20 N -0.925596 -0.486550 -1.980717 0
M  V30 21 C 4.084257 -0.656484 0.634417 0
M  V30 22 C 5.282822 0.061079 0.679655 0
M  V30 23 H 6.218643 1.877257 -0.010727 0
M  V30 24 H 4.309892 2.700087 -1.208987 0
M  V30 25 H 2.308474 1.410334 -1.245829 0
M  V30 26 H 1.516215 -1.302853 -1.120157 0
M  V30 27 H 1.874241 -2.255697 1.738562 0
M  V30 28 H 1.102058 -3.074065 0.262777 0
M  V30 29 H 2.838904 -2.797140 0.246688 0
M  V30 30 H 0.779859 0.122821 1.413124 0
M  V30 31 H -0.164065 -1.107232 0.761485 0
M  V30 32 H -1.616776 2.441695 1.917735 0
M  V30 33 H -3.919528 1.973348 3.026629 0
M  V30 34 H -5.278883 0.106168 1.954797 0
M  V30 35 H -4.473593 -1.144452 0.053197 0
M  V30 36 H -1.590766 -1.697144 -0.497954 0
M  V30 37 H -4.010402 -0.802773 -2.070428 0
M  V30 38 H -2.799897 -1.751538 -2.919262 0
M  V30 39 H -3.472566 -2.431459 -1.437747 0
M  V30 40 H -0.220893 -1.262549 -2.133443 0
M  V30 41 H -1.116834 -0.198364 -2.972205 0
M  V30 42 H 4.114061 -1.575272 1.178750 0
M  V30 43 H 6.154069 -0.276075 1.207477 0
M  V30 END ATOM
M  V30 BEGIN BOND
M  V30 1 2 1 2
M  V30 2 1 2 3
M  V30 3 2 3 4
M  V30 4 1 4 5
M  V30 5 1 5 6
M  V30 6 1 5 7
M  V30 7 9 7 8
M  V30 8 1 8 9
M  V30 9 2 9 10
M  V30 10 2 10 11
M  V30 11 1 8 12
M  V30 12 2 12 13
M  V30 13 1 13 14
M  V30 14 2 14 15
M  V30 15 1 15 16
M  V30 16 2 16 17
M  V30 17 1 17 18
M  V30 18 1 18 19
M  V30 19 1 18 20
M  V30 20 1 4 21
M  V30 21 2 21 22
M  V30 22 1 22 1
M  V30 23 9 20 8
M  V30 24 1 17 12
M  V30 25 1 1 23
M  V30 26 1 2 24
M  V30 27 1 3 25
M  V30 28 1 5 26 CFG=3
M  V30 29 1 6 27
M  V30 30 1 6 28
M  V30 31 1 6 29
M  V30 32 1 7 30
M  V30 33 1 7 31
M  V30 34 1 13 32
M  V30 35 1 14 33
M  V30 36 1 15 34
M  V30 37 1 16 35
M  V30 38 1 18 36 CFG=1
M  V30 39 1 19 37
M  V30 40 1 19 38
M  V30 41 1 19 39
M  V30 42 1 20 40
M  V30 43 1 20 41
M  V30 44 1 21 42
M  V30 45 1 22 43
M  V30 END BOND
M  V30 END CTAB
M  END
