
     RDKit          3D

 55 59  0  0  0  0  0  0  0  0999 V2000
    3.9366   -3.6314    0.5368 C   0  0  0  0  0  0  0  0  0  0  0  0
    2.5731   -3.5979    0.6798 C   0  0  0  0  0  0  0  0  0  0  0  0
    1.8304   -2.4432    0.6491 C   0  0  0  0  0  0  0  0  0  0  0  0
    2.5509   -1.2619    0.4590 C   0  0  0  0  0  0  0  0  0  0  0  0
    1.5403    0.2316    0.4247 P   0  0  0  0  0  5  0  0  0  0  0  0
    2.5323    1.4185   -0.5075 C   0  0  0  0  0  0  0  0  0  0  0  0
    2.8552    0.9391   -1.7817 C   0  0  0  0  0  0  0  0  0  0  0  0
    3.6204    1.7736   -2.5915 C   0  0  0  0  0  0  0  0  0  0  0  0
    4.0450    3.0154   -2.1678 C   0  0  0  0  0  0  0  0  0  0  0  0
    3.6989    3.4554   -0.8850 C   0  0  0  0  0  0  0  0  0  0  0  0
    2.9407    2.6554   -0.0523 C   0  0  0  0  0  0  0  0  0  0  0  0
    1.5246    0.8441    2.1967 S   0  0  0  0  0  4  0  0  0  0  0  0
   -0.0339    1.7207    2.7216 Cu  0  0  0  0  0  3  0  0  0  0  0  0
    0.4959    3.8465    3.5283 I   0  0  0  0  0  0  0  0  0  0  0  0
   -1.3982    1.7993    1.6711 S   0  0  0  0  0  4  0  0  0  0  0  0
   -1.5008    0.4600    0.3754 P   0  0  0  0  0  5  0  0  0  0  0  0
   -2.3546   -0.9228    1.1326 C   0  0  0  0  0  0  0  0  0  0  0  0
   -2.3291   -2.1381    0.4626 C   0  0  0  0  0  0  0  0  0  0  0  0
   -2.9391   -3.2845    0.9221 C   0  0  0  0  0  0  0  0  0  0  0  0
   -3.6202   -3.2039    2.1356 C   0  0  0  0  0  0  0  0  0  0  0  0
   -3.6451   -1.9957    2.8008 C   0  0  0  0  0  0  0  0  0  0  0  0
   -3.0254   -0.8659    2.3162 C   0  0  0  0  0  0  0  0  0  0  0  0
   -2.6880    1.0530   -0.8544 C   0  0  0  0  0  0  0  0  0  0  0  0
   -3.7305    1.8753   -0.4705 C   0  0  0  0  0  0  0  0  0  0  0  0
   -4.6351    2.3224   -1.4305 C   0  0  0  0  0  0  0  0  0  0  0  0
   -4.4798    1.9411   -2.7439 C   0  0  0  0  0  0  0  0  0  0  0  0
   -3.4158    1.1147   -3.0736 C   0  0  0  0  0  0  0  0  0  0  0  0
   -2.4868    0.6433   -2.1468 C   0  0  0  0  0  0  0  0  0  0  0  0
    0.0115   -0.0989   -0.3600 C   0  0  0  0  0  0  0  0  0  0  0  0
    3.9150   -1.2642    0.3129 C   0  0  0  0  0  0  0  0  0  0  0  0
    4.6326   -2.4461    0.3489 C   0  0  0  0  0  0  0  0  0  0  0  0
    4.5555   -4.5134    0.5547 H   0  0  0  0  0  0  0  0  0  0  0  0
    2.1623   -4.6028    0.8198 H   0  0  0  0  0  0  0  0  0  0  0  0
    0.7600   -2.5113    0.7704 H   0  0  0  0  0  0  0  0  0  0  0  0
    2.5705   -0.0022   -2.1875 H   0  0  0  0  0  0  0  0  0  0  0  0
    3.8897    1.4225   -3.5995 H   0  0  0  0  0  0  0  0  0  0  0  0
    4.6484    3.6679   -2.8126 H   0  0  0  0  0  0  0  0  0  0  0  0
    4.0104    4.4337   -0.4987 H   0  0  0  0  0  0  0  0  0  0  0  0
    2.6257    2.9092    0.9509 H   0  0  0  0  0  0  0  0  0  0  0  0
    2.1031    0.0209    3.1188 H   0  0  0  0  0  0  0  0  0  0  0  0
   -2.1795    2.9011    1.4713 H   0  0  0  0  0  0  0  0  0  0  0  0
   -1.8172   -2.2748   -0.4886 H   0  0  0  0  0  0  0  0  0  0  0  0
   -2.9125   -4.2228    0.3929 H   0  0  0  0  0  0  0  0  0  0  0  0
   -4.1013   -4.0998    2.5021 H   0  0  0  0  0  0  0  0  0  0  0  0
   -4.1867   -2.0033    3.7288 H   0  0  0  0  0  0  0  0  0  0  0  0
   -3.0499    0.0619    2.8362 H   0  0  0  0  0  0  0  0  0  0  0  0
   -3.8549    2.1762    0.5593 H   0  0  0  0  0  0  0  0  0  0  0  0
   -5.4299    2.9614   -1.0791 H   0  0  0  0  0  0  0  0  0  0  0  0
   -5.1770    2.2847   -3.4890 H   0  0  0  0  0  0  0  0  0  0  0  0
   -3.2965    0.8156   -4.1121 H   0  0  0  0  0  0  0  0  0  0  0  0
   -1.6728   -0.0023   -2.4636 H   0  0  0  0  0  0  0  0  0  0  0  0
   -0.0982   -1.1809   -0.5910 H   0  0  0  0  0  0  0  0  0  0  0  0
    0.0355    0.3607   -1.3887 H   0  0  0  0  0  0  0  0  0  0  0  0
    4.3043   -0.2670    0.1759 H   0  0  0  0  0  0  0  0  0  0  0  0
    5.6900   -2.2904    0.2207 H   0  0  0  0  0  0  0  0  0  0  0  0
  1  2  2  0
  2  3  1  0
  3  4  2  0
  4  5  1  0
  5  6  1  0
  6  7  2  0
  7  8  1  0
  8  9  2  0
  9 10  1  0
 10 11  2  0
  5 12  2  0
 12 13  1  0
 13 14  1  0
 13 15  1  0
 15 16  2  0
 16 17  1  0
 17 18  2  0
 18 19  1  0
 19 20  2  0
 20 21  1  0
 21 22  2  0
 16 23  1  0
 23 24  2  0
 24 25  1  0
 25 26  2  0
 26 27  1  0
 27 28  2  0
 16 29  1  0
  4 30  1  0
 30 31  2  0
 31  1  1  0
 29  5  1  0
 11  6  1  0
 22 17  1  0
 28 23  1  0
  1 32  1  0
  2 33  1  0
  3 34  1  0
  7 35  1  0
  8 36  1  0
  9 37  1  0
 10 38  1  0
 11 39  1  0
 12 40  1  0
 15 41  1  0
 18 42  1  0
 19 43  1  0
 20 44  1  0
 21 45  1  0
 22 46  1  0
 24 47  1  0
 25 48  1  0
 26 49  1  0
 27 50  1  0
 28 51  1  0
 29 52  1  0
 29 53  1  0
 30 54  1  0
 31 55  1  0
M  END
