
 OpenBabel09252514513D

 49 54  0  0  0  0  0  0  0  0999 V2000
    1.0119   -0.0115   -0.0986 C   0  0  0  0  0  0  0  0  0  0  0  0
    0.5052   -0.1903   -1.5205 C   0  0  0  0  0  0  0  0  0  0  0  0
    0.8231    0.6877   -2.4474 N   0  0  0  0  0  0  0  0  0  0  0  0
    1.6682    1.8416   -2.1079 C   0  0  0  0  0  0  0  0  0  0  0  0
    2.9349    1.8063   -2.9474 C   0  0  0  0  0  0  0  0  0  0  0  0
    2.5677    1.8634   -4.4213 C   0  0  0  0  0  0  0  0  0  0  0  0
    1.8327    3.1066   -4.6953 N   0  0  0  0  0  0  0  0  0  0  0  0
    0.5979    3.0838   -5.1589 C   0  0  0  0  0  0  0  0  0  0  0  0
   -0.0349    4.2292   -5.4109 C   0  0  0  0  0  0  0  0  0  0  0  0
    0.6165    5.4625   -5.1926 C   0  0  0  0  0  0  0  0  0  0  0  0
    1.8692    5.4705   -4.7223 O   0  0  0  0  0  0  0  0  0  0  0  0
    2.4822    4.3331   -4.4660 Cu  0  0  0  0  0  0  0  0  0  0  0  0
    4.1306    4.3166   -5.5626 O   0  0  0  0  0  0  0  0  0  0  0  0
    5.0126    3.2054   -5.5021 C   0  0  0  0  0  0  0  0  0  0  0  0
    4.5535    1.9066   -5.8580 C   0  0  0  0  0  0  0  0  0  0  0  0
    5.3262    0.7849   -5.5158 C   0  0  0  0  0  0  0  0  0  0  0  0
    6.5593    0.9370   -5.1311 C   0  0  0  0  0  0  0  0  0  0  0  0
    7.1223    2.2186   -5.0676 C   0  0  0  0  0  0  0  0  0  0  0  0
    6.2799    3.3560   -5.1134 C   0  0  0  0  0  0  0  0  0  0  0  0
   -0.0642    6.6738   -5.4513 C   0  0  0  0  0  0  0  0  0  0  0  0
   -1.3330    6.6860   -5.9098 C   0  0  0  0  0  0  0  0  0  0  0  0
   -2.0378    5.4853   -6.1544 C   0  0  0  0  0  0  0  0  0  0  0  0
   -3.3563    5.5063   -6.6312 C   0  0  0  0  0  0  0  0  0  0  0  0
   -4.0126    4.3318   -6.8574 C   0  0  0  0  0  0  0  0  0  0  0  0
   -3.3929    3.1102   -6.6209 C   0  0  0  0  0  0  0  0  0  0  0  0
   -2.1104    3.0560   -6.1558 C   0  0  0  0  0  0  0  0  0  0  0  0
   -1.4115    4.2407   -5.9152 C   0  0  0  0  0  0  0  0  0  0  0  0
    0.6552   -0.8153    0.5108 H   0  0  0  0  0  0  0  0  0  0  0  0
    0.6552    0.9183    0.2928 H   0  0  0  0  0  0  0  0  0  0  0  0
    2.0819   -0.0115   -0.0986 H   0  0  0  0  0  0  0  0  0  0  0  0
    0.4831    0.5677   -3.4015 H   0  0  0  0  0  0  0  0  0  0  0  0
    1.1332    2.7465   -2.3074 H   0  0  0  0  0  0  0  0  0  0  0  0
    1.9267    1.8014   -1.0704 H   0  0  0  0  0  0  0  0  0  0  0  0
    3.5500    2.6462   -2.7003 H   0  0  0  0  0  0  0  0  0  0  0  0
    3.4699    0.9014   -2.7479 H   0  0  0  0  0  0  0  0  0  0  0  0
    3.4593    1.8385   -5.0122 H   0  0  0  0  0  0  0  0  0  0  0  0
    1.9525    1.0235   -4.6684 H   0  0  0  0  0  0  0  0  0  0  0  0
    2.0204    2.3840   -5.3904 H   0  0  0  0  0  0  0  0  0  0  0  0
    0.1063    2.1492   -5.3319 H   0  0  0  0  0  0  0  0  0  0  0  0
    3.6282    1.7856   -6.3815 H   0  0  0  0  0  0  0  0  0  0  0  0
    4.9004   -0.1951   -5.5715 H   0  0  0  0  0  0  0  0  0  0  0  0
    7.1446    0.0824   -4.8628 H   0  0  0  0  0  0  0  0  0  0  0  0
    8.1825    2.3371   -4.9849 H   0  0  0  0  0  0  0  0  0  0  0  0
    0.4384    7.6027   -5.2797 H   0  0  0  0  0  0  0  0  0  0  0  0
   -1.8156    7.6235   -6.0919 H   0  0  0  0  0  0  0  0  0  0  0  0
   -3.8457    6.4395   -6.8169 H   0  0  0  0  0  0  0  0  0  0  0  0
   -5.0185    4.3513   -7.2219 H   0  0  0  0  0  0  0  0  0  0  0  0
   -3.9273    2.2017   -6.8055 H   0  0  0  0  0  0  0  0  0  0  0  0
   -1.6430    2.1103   -5.9765 H   0  0  0  0  0  0  0  0  0  0  0  0
  1  2  1  0  0  0  0
  1 28  1  0  0  0  0
  1 29  1  0  0  0  0
  1 30  1  0  0  0  0
  2  3  2  0  0  0  0
  2 19  1  0  0  0  0
  3  4  1  0  0  0  0
  3 12  1  0  0  0  0
  3 31  1  0  0  0  0
  4  5  1  0  0  0  0
  4 32  1  0  0  0  0
  4 33  1  0  0  0  0
  5  6  1  0  0  0  0
  5 34  1  0  0  0  0
  5 35  1  0  0  0  0
  6  7  1  0  0  0  0
  6 36  1  0  0  0  0
  6 37  1  0  0  0  0
  7  8  2  0  0  0  0
  7 12  1  0  0  0  0
  7 38  1  0  0  0  0
  8  9  1  0  0  0  0
  8 39  1  0  0  0  0
  9 10  1  0  0  0  0
  9 27  2  0  0  0  0
 10 11  1  0  0  0  0
 10 20  2  0  0  0  0
 11 12  1  0  0  0  0
 12 13  1  0  0  0  0
 13 14  1  0  0  0  0
 14 15  1  0  0  0  0
 14 19  2  0  0  0  0
 15 16  2  0  0  0  0
 15 40  1  0  0  0  0
 16 17  1  0  0  0  0
 16 41  1  0  0  0  0
 17 18  2  0  0  0  0
 17 42  1  0  0  0  0
 18 19  1  0  0  0  0
 18 43  1  0  0  0  0
 20 21  1  0  0  0  0
 20 44  1  0  0  0  0
 21 22  2  0  0  0  0
 21 45  1  0  0  0  0
 22 23  1  0  0  0  0
 22 27  1  0  0  0  0
 23 24  2  0  0  0  0
 23 46  1  0  0  0  0
 24 25  1  0  0  0  0
 24 47  1  0  0  0  0
 25 26  2  0  0  0  0
 25 48  1  0  0  0  0
 26 27  1  0  0  0  0
 26 49  1  0  0  0  0
M  END
$$$$
