
 OpenBabel09252513583D

 80 84  0  0  0  0  0  0  0  0999 V2000
    0.9664    0.0387   -0.0859 Cl  0  0  0  0  0  0  0  0  0  0  0  0
    3.4464    0.0387   -0.0859 Ru  0  0  0  0  0  0  0  0  0  0  0  0
    2.5637   -0.6635    0.5596 C   0  0  0  0  0  0  0  0  0  0  0  0
    1.5143    0.0072    1.3273 C   0  0  0  0  0  0  0  0  0  0  0  0
    0.5470   -0.7096    2.0347 C   0  0  0  0  0  0  0  0  0  0  0  0
   -0.4095   -0.0382    2.7430 C   0  0  0  0  0  0  0  0  0  0  0  0
   -0.4407    1.3504    2.7596 C   0  0  0  0  0  0  0  0  0  0  0  0
    0.5000    2.0838    2.0704 C   0  0  0  0  0  0  0  0  0  0  0  0
    1.4890    1.4199    1.3458 C   0  0  0  0  0  0  0  0  0  0  0  0
    2.5199    2.1440    0.5917 C   0  0  0  0  0  0  0  0  0  0  0  0
    1.7420    2.8676   -0.4953 C   0  0  0  0  0  0  0  0  0  0  0  0
    3.4464    1.4339   -0.0859 N   0  0  0  0  0  0  0  0  0  0  0  0
    3.9450    0.2384   -0.7810 C   0  0  0  0  0  0  0  0  0  0  0  0
    3.1182    1.7462   -1.4843 C   0  0  0  0  0  0  0  0  0  0  0  0
    4.6864    0.0387   -2.2336 Cl  0  0  0  0  0  0  0  0  0  0  0  0
    4.5564    0.0387    1.8367 C   0  0  0  0  0  3  0  0  0  0  0  0
    5.8607    0.8648    1.7176 N   0  0  0  0  0  0  0  0  0  0  0  0
    6.1556    1.2480    3.1923 C   0  0  0  0  0  0  0  0  0  0  0  0
    4.7639    1.5291    3.7966 C   0  0  0  0  0  0  0  0  0  0  0  0
    3.7474    0.7601    2.9343 N   0  0  0  0  0  0  0  0  0  0  0  0
    2.2897    0.7206    3.1203 C   0  0  0  0  0  0  0  0  0  0  0  0
    1.5469    1.8830    3.0663 C   0  0  0  0  0  0  0  0  0  0  0  0
    2.2443    3.2095    2.8127 C   0  0  0  0  0  0  0  0  0  0  0  0
    0.2339    1.8552    3.2330 C   0  0  0  0  0  0  0  0  0  0  0  0
   -0.4133    0.7224    3.4498 C   0  0  0  0  0  0  0  0  0  0  0  0
   -1.9227    0.7420    3.6279 C   0  0  0  0  0  0  0  0  0  0  0  0
    0.2664   -0.4785    3.5163 C   0  0  0  0  0  0  0  0  0  0  0  0
    1.6439   -0.4853    3.3521 C   0  0  0  0  0  0  0  0  0  0  0  0
    2.4284   -1.7852    3.4246 C   0  0  0  0  0  0  0  0  0  0  0  0
    6.6277    1.2019    0.5098 C   0  0  0  0  0  0  0  0  0  0  0  0
    7.9551    0.8350    0.4135 C   0  0  0  0  0  0  0  0  0  0  0  0
    8.5979    0.0384    1.5371 C   0  0  0  0  0  0  0  0  0  0  0  0
    8.6743    1.1693   -0.6464 C   0  0  0  0  0  0  0  0  0  0  0  0
    8.1530    1.8565   -1.6489 C   0  0  0  0  0  0  0  0  0  0  0  0
    9.0184    2.2100   -2.8474 C   0  0  0  0  0  0  0  0  0  0  0  0
    6.8311    2.2569   -1.6195 C   0  0  0  0  0  0  0  0  0  0  0  0
    6.0499    1.9289   -0.5211 C   0  0  0  0  0  0  0  0  0  0  0  0
    4.5930    2.3565   -0.4485 C   0  0  0  0  0  0  0  0  0  0  0  0
    2.6045   -1.7323    0.5296 H   0  0  0  0  0  0  0  0  0  0  0  0
    0.5548   -1.7795    2.0223 H   0  0  0  0  0  0  0  0  0  0  0  0
   -1.1442   -0.5893    3.2920 H   0  0  0  0  0  0  0  0  0  0  0  0
   -1.2036    1.8560    3.3138 H   0  0  0  0  0  0  0  0  0  0  0  0
    0.4719    3.1532    2.0910 H   0  0  0  0  0  0  0  0  0  0  0  0
    3.0452    2.7618    1.2898 H   0  0  0  0  0  0  0  0  0  0  0  0
    1.0031    3.4976   -0.0459 H   0  0  0  0  0  0  0  0  0  0  0  0
    2.4132    3.4642   -1.0772 H   0  0  0  0  0  0  0  0  0  0  0  0
    1.2622    2.1505   -1.1281 H   0  0  0  0  0  0  0  0  0  0  0  0
    4.3533    1.7205    0.2827 H   0  0  0  0  0  0  0  0  0  0  0  0
    3.1362   -0.2399   -1.2928 H   0  0  0  0  0  0  0  0  0  0  0  0
    4.6955    0.5240   -1.4882 H   0  0  0  0  0  0  0  0  0  0  0  0
    4.3663   -0.4391   -0.0680 H   0  0  0  0  0  0  0  0  0  0  0  0
    3.1453    2.8061   -1.6289 H   0  0  0  0  0  0  0  0  0  0  0  0
    3.8318    1.2797   -2.1309 H   0  0  0  0  0  0  0  0  0  0  0  0
    2.1386    1.3802   -1.7111 H   0  0  0  0  0  0  0  0  0  0  0  0
    6.8146    2.0871    3.2736 H   0  0  0  0  0  0  0  0  0  0  0  0
    6.6360    0.4411    3.7052 H   0  0  0  0  0  0  0  0  0  0  0  0
    4.5501    2.5775    3.8026 H   0  0  0  0  0  0  0  0  0  0  0  0
    4.7245    1.1850    4.8090 H   0  0  0  0  0  0  0  0  0  0  0  0
    1.8572    3.6507    1.9181 H   0  0  0  0  0  0  0  0  0  0  0  0
    2.0710    3.8672    3.6387 H   0  0  0  0  0  0  0  0  0  0  0  0
    3.2958    3.0443    2.7028 H   0  0  0  0  0  0  0  0  0  0  0  0
   -0.3171    2.7715    3.1913 H   0  0  0  0  0  0  0  0  0  0  0  0
   -2.1746    1.3532    4.4693 H   0  0  0  0  0  0  0  0  0  0  0  0
   -2.3806    1.1413    2.7472 H   0  0  0  0  0  0  0  0  0  0  0  0
   -2.2753   -0.2547    3.7928 H   0  0  0  0  0  0  0  0  0  0  0  0
   -0.2629   -1.3916    3.6921 H   0  0  0  0  0  0  0  0  0  0  0  0
    2.2876   -2.2336    4.3859 H   0  0  0  0  0  0  0  0  0  0  0  0
    2.0815   -2.4540    2.6649 H   0  0  0  0  0  0  0  0  0  0  0  0
    3.4683   -1.5831    3.2742 H   0  0  0  0  0  0  0  0  0  0  0  0
    8.9512   -0.8964    1.1547 H   0  0  0  0  0  0  0  0  0  0  0  0
    9.4195    0.5916    1.9418 H   0  0  0  0  0  0  0  0  0  0  0  0
    7.8755   -0.1409    2.3058 H   0  0  0  0  0  0  0  0  0  0  0  0
    9.7023    0.8764   -0.6931 H   0  0  0  0  0  0  0  0  0  0  0  0
    9.8480    2.8042   -2.5254 H   0  0  0  0  0  0  0  0  0  0  0  0
    9.3788    1.3121   -3.3043 H   0  0  0  0  0  0  0  0  0  0  0  0
    8.4376    2.7626   -3.5561 H   0  0  0  0  0  0  0  0  0  0  0  0
    6.4151    2.8128   -2.4337 H   0  0  0  0  0  0  0  0  0  0  0  0
    4.5321    3.4239   -0.4905 H   0  0  0  0  0  0  0  0  0  0  0  0
    4.0564    1.9359   -1.2731 H   0  0  0  0  0  0  0  0  0  0  0  0
    4.1651    2.0106    0.4692 H   0  0  0  0  0  0  0  0  0  0  0  0
  1  2  1  0  0  0  0
  2  3  2  0  0  0  0
  2 12  1  0  0  0  0
  2 15  1  0  0  0  0
  2 16  1  0  0  0  0
  3  4  1  0  0  0  0
  3 39  1  0  0  0  0
  4  5  1  0  0  0  0
  4  9  2  0  0  0  0
  5  6  2  0  0  0  0
  5 40  1  0  0  0  0
  6  7  1  0  0  0  0
  6 41  1  0  0  0  0
  7  8  2  0  0  0  0
  7 42  1  0  0  0  0
  8  9  1  0  0  0  0
  8 43  1  0  0  0  0
  9 10  1  0  0  0  0
 10 11  1  0  0  0  0
 10 12  1  0  0  0  0
 10 44  1  0  0  0  0
 11 45  1  0  0  0  0
 11 46  1  0  0  0  0
 11 47  1  0  0  0  0
 12 13  1  0  0  0  0
 12 14  1  0  0  0  0
 12 48  1  0  0  0  0
 13 49  1  0  0  0  0
 13 50  1  0  0  0  0
 13 51  1  0  0  0  0
 14 52  1  0  0  0  0
 14 53  1  0  0  0  0
 14 54  1  0  0  0  0
 16 17  1  0  0  0  0
 16 20  1  0  0  0  0
 17 18  1  0  0  0  0
 17 30  1  0  0  0  0
 18 19  1  0  0  0  0
 18 55  1  0  0  0  0
 18 56  1  0  0  0  0
 19 20  1  0  0  0  0
 19 57  1  0  0  0  0
 19 58  1  0  0  0  0
 20 21  1  0  0  0  0
 21 22  1  0  0  0  0
 21 28  2  0  0  0  0
 22 23  1  0  0  0  0
 22 24  2  0  0  0  0
 23 59  1  0  0  0  0
 23 60  1  0  0  0  0
 23 61  1  0  0  0  0
 24 25  1  0  0  0  0
 24 62  1  0  0  0  0
 25 26  1  0  0  0  0
 25 27  2  0  0  0  0
 26 63  1  0  0  0  0
 26 64  1  0  0  0  0
 26 65  1  0  0  0  0
 27 28  1  0  0  0  0
 27 66  1  0  0  0  0
 28 29  1  0  0  0  0
 29 67  1  0  0  0  0
 29 68  1  0  0  0  0
 29 69  1  0  0  0  0
 30 31  1  0  0  0  0
 30 37  2  0  0  0  0
 31 32  1  0  0  0  0
 31 33  2  0  0  0  0
 32 70  1  0  0  0  0
 32 71  1  0  0  0  0
 32 72  1  0  0  0  0
 33 34  1  0  0  0  0
 33 73  1  0  0  0  0
 34 35  1  0  0  0  0
 34 36  2  0  0  0  0
 35 74  1  0  0  0  0
 35 75  1  0  0  0  0
 35 76  1  0  0  0  0
 36 37  1  0  0  0  0
 36 77  1  0  0  0  0
 37 38  1  0  0  0  0
 38 78  1  0  0  0  0
 38 79  1  0  0  0  0
 38 80  1  0  0  0  0
M  END
$$$$
