
 OpenBabel09252513583D

 57 60  0  0  0  0  0  0  0  0999 V2000
    0.9871    0.0175   -0.3280 C   0  0  0  0  0  0  0  0  0  0  0  0
    0.4339    1.2509   -0.7743 O   0  0  0  0  0  0  0  0  0  0  0  0
    0.8585    2.3664   -0.0960 C   0  0  0  0  0  0  0  0  0  0  0  0
    2.1472    2.4869    0.4444 C   0  0  0  0  0  0  0  0  0  0  0  0
    2.5262    3.6455    1.1266 C   0  0  0  0  0  0  0  0  0  0  0  0
    1.6315    4.7040    1.2506 C   0  0  0  0  0  0  0  0  0  0  0  0
    0.3544    4.6037    0.6944 C   0  0  0  0  0  0  0  0  0  0  0  0
   -0.0438    3.4371    0.0245 C   0  0  0  0  0  0  0  0  0  0  0  0
   -1.4159    3.3299   -0.4034 C   0  0  0  0  0  0  0  0  0  0  0  0
   -2.5974    3.2296   -0.6132 C   0  0  0  0  0  0  0  0  0  0  0  0
   -4.0215    3.1236   -0.8273 C   0  0  0  0  0  0  0  0  0  0  0  0
   -4.8537    2.3514   -0.0796 C   0  0  0  0  0  0  0  0  0  0  0  0
   -4.4297    1.7245    1.1644 N   0  0  0  0  0  0  0  0  0  0  0  0
   -3.1815    1.7363    1.8416 C   0  0  0  0  0  0  0  0  0  0  0  0
   -2.6985    2.8758    2.4904 C   0  0  0  0  0  0  0  0  0  0  0  0
   -1.4715    2.8276    3.1604 C   0  0  0  0  0  0  0  0  0  0  0  0
   -0.7556    1.6317    3.2292 C   0  0  0  0  0  0  0  0  0  0  0  0
   -1.2788    0.4748    2.6564 C   0  0  0  0  0  0  0  0  0  0  0  0
   -2.4890    0.5275    1.9650 C   0  0  0  0  0  0  0  0  0  0  0  0
   -5.7761    1.2551    2.1003 S   0  0  0  0  0  0  0  0  0  0  0  0
   -5.7693   -0.1830    2.2737 O   0  0  0  0  0  0  0  0  0  0  0  0
   -5.9929    2.1788    3.1923 O   0  0  0  0  0  0  0  0  0  0  0  0
   -6.9391    1.6256    0.8596 C   0  0  0  0  0  0  0  0  0  0  0  0
   -8.2991    1.3540    0.9515 C   0  0  0  0  0  0  0  0  0  0  0  0
   -9.0622    1.5061   -0.1996 C   0  0  0  0  0  0  0  0  0  0  0  0
   -8.4287    1.7971   -1.4105 C   0  0  0  0  0  0  0  0  0  0  0  0
   -7.0426    2.0070   -1.4586 C   0  0  0  0  0  0  0  0  0  0  0  0
   -6.2967    2.0636   -0.2927 C   0  0  0  0  0  0  0  0  0  0  0  0
   -4.4441    4.2968   -2.3130 Si  0  0  0  0  0  0  0  0  0  0  0  0
   -3.8395    6.0541   -1.8767 C   0  0  0  0  0  0  0  0  0  0  0  0
   -3.4569    3.6715   -3.8062 C   0  0  0  0  0  0  0  0  0  0  0  0
   -6.2025    4.5912   -2.8950 C   0  0  0  0  0  0  0  0  0  0  0  0
    0.4139   -0.7925   -0.7884 H   0  0  0  0  0  0  0  0  0  0  0  0
    0.9062   -0.0902    0.7584 H   0  0  0  0  0  0  0  0  0  0  0  0
    2.0275   -0.0908   -0.6497 H   0  0  0  0  0  0  0  0  0  0  0  0
    2.8793    1.6922    0.3456 H   0  0  0  0  0  0  0  0  0  0  0  0
    3.5214    3.7196    1.5589 H   0  0  0  0  0  0  0  0  0  0  0  0
    1.9232    5.6025    1.7885 H   0  0  0  0  0  0  0  0  0  0  0  0
   -0.3441    5.4279    0.8176 H   0  0  0  0  0  0  0  0  0  0  0  0
   -3.2484    3.8109    2.4418 H   0  0  0  0  0  0  0  0  0  0  0  0
   -1.0586    3.7294    3.6047 H   0  0  0  0  0  0  0  0  0  0  0  0
    0.2117    1.6036    3.7242 H   0  0  0  0  0  0  0  0  0  0  0  0
   -0.7416   -0.4661    2.7349 H   0  0  0  0  0  0  0  0  0  0  0  0
   -2.8954   -0.3788    1.5231 H   0  0  0  0  0  0  0  0  0  0  0  0
   -8.7436    1.0167    1.8825 H   0  0  0  0  0  0  0  0  0  0  0  0
  -10.1359    1.3375   -0.1748 H   0  0  0  0  0  0  0  0  0  0  0  0
   -9.0098    1.8380   -2.3296 H   0  0  0  0  0  0  0  0  0  0  0  0
   -6.5676    2.0877   -2.4269 H   0  0  0  0  0  0  0  0  0  0  0  0
   -2.7636    6.0797   -1.6957 H   0  0  0  0  0  0  0  0  0  0  0  0
   -4.0745    6.7330   -2.7033 H   0  0  0  0  0  0  0  0  0  0  0  0
   -4.3663    6.4098   -0.9857 H   0  0  0  0  0  0  0  0  0  0  0  0
   -3.6748    2.6125   -3.9770 H   0  0  0  0  0  0  0  0  0  0  0  0
   -3.7342    4.2293   -4.7051 H   0  0  0  0  0  0  0  0  0  0  0  0
   -2.3823    3.7854   -3.6411 H   0  0  0  0  0  0  0  0  0  0  0  0
   -6.5576    3.8009   -3.5615 H   0  0  0  0  0  0  0  0  0  0  0  0
   -6.8996    4.7228   -2.0637 H   0  0  0  0  0  0  0  0  0  0  0  0
   -6.2379    5.5099   -3.4916 H   0  0  0  0  0  0  0  0  0  0  0  0
  1  2  1  0  0  0  0
  1 33  1  0  0  0  0
  1 34  1  0  0  0  0
  1 35  1  0  0  0  0
  2  3  1  0  0  0  0
  3  4  1  0  0  0  0
  3  8  2  0  0  0  0
  4  5  2  0  0  0  0
  4 36  1  0  0  0  0
  5  6  1  0  0  0  0
  5 37  1  0  0  0  0
  6  7  2  0  0  0  0
  6 38  1  0  0  0  0
  7  8  1  0  0  0  0
  7 39  1  0  0  0  0
  8  9  1  0  0  0  0
  9 10  3  0  0  0  0
 10 11  1  0  0  0  0
 11 12  2  0  0  0  0
 11 29  1  0  0  0  0
 12 13  1  0  0  0  0
 12 28  1  0  0  0  0
 13 14  1  0  0  0  0
 13 20  1  0  0  0  0
 14 15  1  0  0  0  0
 14 19  2  0  0  0  0
 15 16  2  0  0  0  0
 15 40  1  0  0  0  0
 16 17  1  0  0  0  0
 16 41  1  0  0  0  0
 17 18  2  0  0  0  0
 17 42  1  0  0  0  0
 18 19  1  0  0  0  0
 18 43  1  0  0  0  0
 19 44  1  0  0  0  0
 20 21  2  0  0  0  0
 20 22  2  0  0  0  0
 20 23  1  0  0  0  0
 23 24  1  0  0  0  0
 23 28  2  0  0  0  0
 24 25  2  0  0  0  0
 24 45  1  0  0  0  0
 25 26  1  0  0  0  0
 25 46  1  0  0  0  0
 26 27  2  0  0  0  0
 26 47  1  0  0  0  0
 27 28  1  0  0  0  0
 27 48  1  0  0  0  0
 29 30  1  0  0  0  0
 29 31  1  0  0  0  0
 29 32  1  0  0  0  0
 30 49  1  0  0  0  0
 30 50  1  0  0  0  0
 30 51  1  0  0  0  0
 31 52  1  0  0  0  0
 31 53  1  0  0  0  0
 31 54  1  0  0  0  0
 32 55  1  0  0  0  0
 32 56  1  0  0  0  0
 32 57  1  0  0  0  0
M  END
$$$$
