
 OpenBabel09252513383D

 76 82  0  0  1  0  0  0  0  0999 V2000
    1.0469   -0.0506    0.0724 H   0  0  0  0  0  0  0  0  0  0  0  0
    2.1169   -0.0506    0.0724 C   0  0  0  0  0  3  0  0  0  0  0  0
    2.6292   -1.4336   -0.3368 C   0  0  0  0  0  3  0  0  0  0  0  0
    2.2400   -2.1709    0.3339 H   0  0  0  0  0  0  0  0  0  0  0  0
    2.1989   -1.7257   -1.6680 C   0  0  0  0  0  3  0  0  0  0  0  0
    2.5392   -2.7075   -1.9233 H   0  0  0  0  0  0  0  0  0  0  0  0
    2.6864   -0.8117   -2.6520 C   0  0  0  0  0  3  0  0  0  0  0  0
    4.5163   -0.8159   -2.6354 P   0  0  0  0  0  0  0  0  0  0  0  0
    4.5311   -1.3192   -4.3948 C   0  0  0  0  0  3  0  0  0  0  0  0
    3.8014   -2.6555   -4.5510 C   0  0  0  0  0  3  0  0  0  0  0  0
    4.2691   -3.3919   -3.9314 H   0  0  0  0  0  0  0  0  0  0  0  0
    2.4358   -2.5006   -4.1592 C   0  0  0  0  0  3  0  0  0  0  0  0
    1.9516   -3.4509   -4.2450 H   0  0  0  0  0  0  0  0  0  0  0  0
    1.7080   -1.5537   -4.9435 C   0  0  0  0  0  3  0  0  0  0  0  0
    1.7253   -1.8529   -5.9707 H   0  0  0  0  0  0  0  0  0  0  0  0
    2.3529   -0.1729   -4.8032 C   0  0  0  0  0  3  0  0  0  0  0  0
    1.8349    0.5290   -5.4228 H   0  0  0  0  0  0  0  0  0  0  0  0
    3.8193   -0.2566   -5.2386 C   0  0  0  0  0  3  0  0  0  0  0  0
    3.8714   -0.5258   -6.2728 H   0  0  0  0  0  0  0  0  0  0  0  0
    4.5014   -2.0880   -1.3199 C   0  0  0  0  0  3  0  0  0  0  0  0
    3.7624   -1.5435   -0.0953 C   0  0  0  0  0  3  0  0  0  0  0  0
    4.2361   -0.6431    0.2361 H   0  0  0  0  0  0  0  0  0  0  0  0
    2.4040   -1.2671   -0.4433 C   0  0  0  0  0  3  0  0  0  0  0  0
    1.9136   -0.8584    0.4154 H   0  0  0  0  0  0  0  0  0  0  0  0
    1.6687   -2.4127   -0.8772 C   0  0  0  0  0  3  0  0  0  0  0  0
    1.6679   -3.1506   -0.1025 H   0  0  0  0  0  0  0  0  0  0  0  0
    2.3231   -2.9923   -2.1335 C   0  0  0  0  0  3  0  0  0  0  0  0
    1.7988   -3.8748   -2.4357 H   0  0  0  0  0  0  0  0  0  0  0  0
    3.7817   -3.3432   -1.8239 C   0  0  0  0  0  3  0  0  0  0  0  0
    3.8301   -4.4222   -0.7544 C   0  0  0  0  0  0  0  0  0  0  0  0
    4.9897   -4.8785   -0.3323 N   0  0  0  0  0  0  0  0  0  0  0  0
    5.0365   -5.9220    0.7020 C   0  0  0  0  0  3  0  0  0  0  0  0
    3.6973   -6.6596    0.7724 C   0  0  0  0  0  3  0  0  0  0  0  0
    2.9145   -5.9591    0.9761 H   0  0  0  0  0  0  0  0  0  0  0  0
    3.4445   -7.3070   -0.4763 C   0  0  0  0  0  3  0  0  0  0  0  0
    2.4912   -7.7894   -0.4178 H   0  0  0  0  0  0  0  0  0  0  0  0
    4.4217   -8.2861   -0.8338 C   0  0  0  0  0  3  0  0  0  0  0  0
    4.4672   -9.0386   -0.0744 H   0  0  0  0  0  0  0  0  0  0  0  0
    5.7902   -7.6144   -0.9692 C   0  0  0  0  0  3  0  0  0  0  0  0
    6.5308   -8.3528   -1.1954 H   0  0  0  0  0  0  0  0  0  0  0  0
    6.1430   -6.9222    0.3511 C   0  0  1  0  0  0  0  0  0  0  0  0
    6.2254   -7.6530    1.1283 H   0  0  0  0  0  0  0  0  0  0  0  0
    4.5164    1.4445   -2.0703 Co  0  0  0  0  0  0  0  0  0  0  0  0
    6.8463    1.4391   -2.0492 P   0  0  0  0  0  0  0  0  0  0  0  0
    6.8633    1.6740   -3.8640 C   0  0  0  0  0  0  0  0  0  0  0  0
    5.9935    2.2220   -4.1609 H   0  0  0  0  0  0  0  0  0  0  0  0
    7.7408    2.2180   -4.1450 H   0  0  0  0  0  0  0  0  0  0  0  0
    6.8654    0.7193   -4.3472 H   0  0  0  0  0  0  0  0  0  0  0  0
    6.8396    2.8934   -0.9384 C   0  0  0  0  0  0  0  0  0  0  0  0
    5.9603    2.8727   -0.3290 H   0  0  0  0  0  0  0  0  0  0  0  0
    7.7076    2.8686   -0.3132 H   0  0  0  0  0  0  0  0  0  0  0  0
    6.8470    3.7892   -1.5235 H   0  0  0  0  0  0  0  0  0  0  0  0
    6.8360   -0.2500   -1.3453 C   0  0  0  0  0  0  0  0  0  0  0  0
    7.3449   -0.9165   -2.0099 H   0  0  0  0  0  0  0  0  0  0  0  0
    7.3319   -0.2443   -0.3971 H   0  0  0  0  0  0  0  0  0  0  0  0
    5.8252   -0.5769   -1.2172 H   0  0  0  0  0  0  0  0  0  0  0  0
    4.5382    2.0096   -4.3306 P   0  0  0  0  0  0  0  0  0  0  0  0
    4.7876    0.2503   -4.7681 C   0  0  0  0  0  0  0  0  0  0  0  0
    4.3284   -0.3701   -4.0270 H   0  0  0  0  0  0  0  0  0  0  0  0
    4.3447    0.0537   -5.7221 H   0  0  0  0  0  0  0  0  0  0  0  0
    5.8356    0.0385   -4.8109 H   0  0  0  0  0  0  0  0  0  0  0  0
    2.8435    2.6833   -4.1785 C   0  0  0  0  0  0  0  0  0  0  0  0
    2.6953    3.0554   -3.1864 H   0  0  0  0  0  0  0  0  0  0  0  0
    2.7117    3.4792   -4.8814 H   0  0  0  0  0  0  0  0  0  0  0  0
    2.1326    1.9091   -4.3790 H   0  0  0  0  0  0  0  0  0  0  0  0
    5.9834    3.0953   -4.0453 C   0  0  0  0  0  0  0  0  0  0  0  0
    6.8057    2.7586   -4.6415 H   0  0  0  0  0  0  0  0  0  0  0  0
    5.7340    4.0999   -4.3165 H   0  0  0  0  0  0  0  0  0  0  0  0
    6.2557    3.0622   -3.0110 H   0  0  0  0  0  0  0  0  0  0  0  0
    2.1764    0.5965   -2.3365 C   0  0  0  0  0  3  0  0  0  0  0  0
    2.5747    1.2893   -3.0480 H   0  0  0  0  0  0  0  0  0  0  0  0
    2.6298    0.9910   -0.9275 C   0  0  0  0  0  3  0  0  0  0  0  0
    3.6986    1.0268   -0.8915 H   0  0  0  0  0  0  0  0  0  0  0  0
    5.8962   -0.8191   -2.6230 H   0  0  0  0  0  0  0  0  0  0  0  0
    8.2262    1.4359   -2.0367 H   0  0  0  0  0  0  0  0  0  0  0  0
    4.5511    2.3443   -5.6694 H   0  0  0  0  0  0  0  0  0  0  0  0
  1  2  1  0  0  0  0
  2  3  1  0  0  0  0
  2 72  1  0  0  0  0
  3  4  1  0  0  0  0
  3  5  1  0  0  0  0
  5  6  1  0  0  0  0
  5  7  1  0  0  0  0
  7  8  1  0  0  0  0
  7 70  1  0  0  0  0
  8  9  1  0  0  0  0
  8 20  1  0  0  0  0
  8 43  1  0  0  0  0
  8 74  1  0  0  0  0
  9 10  1  0  0  0  0
  9 18  1  0  0  0  0
 10 11  1  0  0  0  0
 10 12  1  0  0  0  0
 12 13  1  0  0  0  0
 12 14  1  0  0  0  0
 14 15  1  0  0  0  0
 14 16  1  0  0  0  0
 16 17  1  0  0  0  0
 16 18  1  0  0  0  0
 18 19  1  0  0  0  0
 20 21  1  0  0  0  0
 20 29  1  0  0  0  0
 21 22  1  0  0  0  0
 21 23  1  0  0  0  0
 23 24  1  0  0  0  0
 23 25  1  0  0  0  0
 25 26  1  0  0  0  0
 25 27  1  0  0  0  0
 27 28  1  0  0  0  0
 27 29  1  0  0  0  0
 29 30  1  0  0  0  0
 30 31  2  0  0  0  0
 30 43  1  0  0  0  0
 31 32  1  0  0  0  0
 32 33  1  0  0  0  0
 32 41  1  0  0  0  0
 33 34  1  0  0  0  0
 33 35  1  0  0  0  0
 35 36  1  0  0  0  0
 35 37  1  0  0  0  0
 37 38  1  0  0  0  0
 37 39  1  0  0  0  0
 39 40  1  0  0  0  0
 39 41  1  0  0  0  0
 41 42  1  1  0  0  0
 41 43  1  0  0  0  0
 42 43  1  0  0  0  0
 43 44  1  0  0  0  0
 43 57  1  0  0  0  0
 44 45  1  0  0  0  0
 44 49  1  0  0  0  0
 44 53  1  0  0  0  0
 44 75  1  0  0  0  0
 45 46  1  0  0  0  0
 45 47  1  0  0  0  0
 45 48  1  0  0  0  0
 49 50  1  0  0  0  0
 49 51  1  0  0  0  0
 49 52  1  0  0  0  0
 53 54  1  0  0  0  0
 53 55  1  0  0  0  0
 53 56  1  0  0  0  0
 57 58  1  0  0  0  0
 57 62  1  0  0  0  0
 57 66  1  0  0  0  0
 57 76  1  0  0  0  0
 58 59  1  0  0  0  0
 58 60  1  0  0  0  0
 58 61  1  0  0  0  0
 62 63  1  0  0  0  0
 62 64  1  0  0  0  0
 62 65  1  0  0  0  0
 66 67  1  0  0  0  0
 66 68  1  0  0  0  0
 66 69  1  0  0  0  0
 70 71  1  0  0  0  0
 70 72  1  0  0  0  0
 72 73  1  0  0  0  0
M  END
$$$$
