
 OpenBabel09252513083D

 42 41  0  0  0  0  0  0  0  0999 V2000
    0.9582   -0.0874   -0.0247 C   0  0  0  0  0  0  0  0  0  0  0  0
    0.2515   -2.0859    0.0096 Pt  0  0  0  0  0  0  0  0  0  0  0  0
    1.9825   -2.6796    1.0800 C   0  0  0  0  0  0  0  0  0  0  0  0
   -0.7478   -1.7011    1.8393 C   0  0  0  0  0  0  0  0  0  0  0  0
   -0.4385   -4.0372    0.0432 N   0  0  0  0  0  0  0  0  0  0  0  0
    0.2484   -4.9445    0.6091 N   0  3  0  0  0  0  0  0  0  0  0  0
    0.9352   -5.8517    1.1751 N   0  5  0  0  0  0  0  0  0  0  0  0
   -1.7325   -1.4054   -1.2172 P   0  0  0  0  0  4  0  0  0  0  0  0
   -1.3259    0.0174   -2.2939 C   0  0  0  0  0  0  0  0  0  0  0  0
   -2.3220   -2.7997   -2.2455 C   0  0  0  0  0  0  0  0  0  0  0  0
   -3.0439   -0.9214   -0.0362 C   0  0  0  0  0  0  0  0  0  0  0  0
    1.3971   -2.5270   -2.0875 P   0  0  0  0  0  4  0  0  0  0  0  0
    0.7522   -1.4060   -3.3824 C   0  0  0  0  0  0  0  0  0  0  0  0
    3.1922   -2.2429   -1.8736 C   0  0  0  0  0  0  0  0  0  0  0  0
    1.1095   -4.2641   -2.5860 C   0  0  0  0  0  0  0  0  0  0  0  0
    0.6015    0.4319    0.8402 H   0  0  0  0  0  0  0  0  0  0  0  0
    0.6016    0.4019   -0.9069 H   0  0  0  0  0  0  0  0  0  0  0  0
    2.0282   -0.0874   -0.0247 H   0  0  0  0  0  0  0  0  0  0  0  0
    2.3272   -1.8644    1.6812 H   0  0  0  0  0  0  0  0  0  0  0  0
    1.7447   -3.5115    1.7095 H   0  0  0  0  0  0  0  0  0  0  0  0
    2.7493   -2.9626    0.3894 H   0  0  0  0  0  0  0  0  0  0  0  0
   -1.7974   -1.8672    1.7142 H   0  0  0  0  0  0  0  0  0  0  0  0
   -0.3708   -2.3565    2.5963 H   0  0  0  0  0  0  0  0  0  0  0  0
   -0.5797   -0.6854    2.1307 H   0  0  0  0  0  0  0  0  0  0  0  0
   -0.5591   -0.2656   -2.9845 H   0  0  0  0  0  0  0  0  0  0  0  0
   -2.1995    0.3170   -2.8342 H   0  0  0  0  0  0  0  0  0  0  0  0
   -0.9812    0.8326   -1.6927 H   0  0  0  0  0  0  0  0  0  0  0  0
   -2.5598   -3.6316   -1.6160 H   0  0  0  0  0  0  0  0  0  0  0  0
   -3.1957   -2.5000   -2.7858 H   0  0  0  0  0  0  0  0  0  0  0  0
   -1.5552   -3.0827   -2.9361 H   0  0  0  0  0  0  0  0  0  0  0  0
   -3.2817   -1.7533    0.5934 H   0  0  0  0  0  0  0  0  0  0  0  0
   -2.6993   -0.1061    0.5651 H   0  0  0  0  0  0  0  0  0  0  0  0
   -3.9176   -0.6217   -0.5764 H   0  0  0  0  0  0  0  0  0  0  0  0
    0.9203   -0.3903   -3.0909 H   0  0  0  0  0  0  0  0  0  0  0  0
    1.2566   -1.6003   -4.3058 H   0  0  0  0  0  0  0  0  0  0  0  0
   -0.2974   -1.5721   -3.5075 H   0  0  0  0  0  0  0  0  0  0  0  0
    3.5692   -2.8983   -1.1165 H   0  0  0  0  0  0  0  0  0  0  0  0
    3.6966   -2.4372   -2.7970 H   0  0  0  0  0  0  0  0  0  0  0  0
    3.3603   -1.2272   -1.5821 H   0  0  0  0  0  0  0  0  0  0  0  0
    1.4866   -4.9195   -1.8290 H   0  0  0  0  0  0  0  0  0  0  0  0
    0.0599   -4.4302   -2.7112 H   0  0  0  0  0  0  0  0  0  0  0  0
    1.6139   -4.4584   -3.5095 H   0  0  0  0  0  0  0  0  0  0  0  0
  1  2  1  0  0  0  0
  1 16  1  0  0  0  0
  1 17  1  0  0  0  0
  1 18  1  0  0  0  0
  2  3  1  0  0  0  0
  2  4  1  0  0  0  0
  2  5  1  0  0  0  0
  2  8  1  0  0  0  0
  2 12  1  0  0  0  0
  3 19  1  0  0  0  0
  3 20  1  0  0  0  0
  3 21  1  0  0  0  0
  4 22  1  0  0  0  0
  4 23  1  0  0  0  0
  4 24  1  0  0  0  0
  5  6  2  0  0  0  0
  6  7  2  0  0  0  0
  8  9  1  0  0  0  0
  8 10  1  0  0  0  0
  8 11  1  0  0  0  0
  9 25  1  0  0  0  0
  9 26  1  0  0  0  0
  9 27  1  0  0  0  0
 10 28  1  0  0  0  0
 10 29  1  0  0  0  0
 10 30  1  0  0  0  0
 11 31  1  0  0  0  0
 11 32  1  0  0  0  0
 11 33  1  0  0  0  0
 12 13  1  0  0  0  0
 12 14  1  0  0  0  0
 12 15  1  0  0  0  0
 13 34  1  0  0  0  0
 13 35  1  0  0  0  0
 13 36  1  0  0  0  0
 14 37  1  0  0  0  0
 14 38  1  0  0  0  0
 14 39  1  0  0  0  0
 15 40  1  0  0  0  0
 15 41  1  0  0  0  0
 15 42  1  0  0  0  0
M  CHG  2   6   1   7  -1
M  END
$$$$
