
 OpenBabel09252513523D

 53 64  0  0  1  0  0  0  0  0999 V2000
    0.9534   -0.0391    0.0794 H   0  0  0  0  0  0  0  0  0  0  0  0
    2.0234   -0.0391    0.0794 C   0  0  0  0  0  0  0  0  0  0  0  0
    2.3801    0.7462   -0.5538 H   0  0  0  0  0  0  0  0  0  0  0  0
    2.3801    0.1167    1.0761 H   0  0  0  0  0  0  0  0  0  0  0  0
    2.5301   -1.3759   -0.4369 C   0  0  0  0  0  0  0  0  0  0  0  0
    2.9504   -2.4849   -0.8652 N   0  0  0  0  0  4  0  0  0  0  0  0
    3.6737   -4.3934   -1.6023 Ru  0  0  0  0  0  0  0  0  0  0  0  0
    1.5849   -3.6436   -1.5470 C   0  0  0  0  0  0  0  0  0  0  0  0
    0.4388   -3.2322   -1.5166 O   0  0  0  0  0  0  0  0  0  0  0  0
    2.9997   -5.6724   -2.1093 Br  0  0  0  0  0  2  0  0  0  0  0  0
    1.7297   -5.8524   -1.3903 Ru  0  3  0  0  0  0  0  0  0  0  0  0
    2.2497   -7.4502    0.0605 C   0  0  0  0  0  0  0  0  0  0  0  0
    2.5351   -8.3270    0.8565 O   0  0  0  0  0  0  0  0  0  0  0  0
    3.0365   -6.0963   -3.1055 N   0  0  0  0  0  4  0  0  0  0  0  0
    3.7959   -6.2380   -4.1021 C   0  0  0  0  0  0  0  0  0  0  0  0
    4.7113   -6.4089   -5.3035 C   0  0  0  0  0  0  0  0  0  0  0  0
    5.1553   -7.3821   -5.2781 H   0  0  0  0  0  0  0  0  0  0  0  0
    4.1429   -6.2995   -6.2034 H   0  0  0  0  0  0  0  0  0  0  0  0
    5.4802   -5.6653   -5.2746 H   0  0  0  0  0  0  0  0  0  0  0  0
   -1.5963   -4.4494   -1.1973 C   0  0  2  0  0  0  0  0  0  0  0  0
   -2.5647   -4.0734   -0.9411 H   0  0  0  0  0  0  0  0  0  0  0  0
   -1.1793   -4.3954   -2.6033 C   0  0  1  0  0  0  0  0  0  0  0  0
   -1.9862   -4.0965   -3.2393 H   0  0  0  0  0  0  0  0  0  0  0  0
    0.1517   -4.5504   -2.7263 C   0  0  1  0  0  0  0  0  0  0  0  0
    0.7727   -4.7464   -1.3663 C   0  0  1  0  0  0  0  0  0  0  0  0
   -0.4103   -5.0894   -0.4403 C   0  0  2  0  0  0  0  0  0  0  0  0
   -0.9436   -5.2899    0.4653 H   0  0  0  0  0  0  0  0  0  0  0  0
    1.4627   -3.4664   -0.8903 C   0  0  0  0  0  0  0  0  0  0  0  0
    1.8693   -3.6172    0.5665 C   0  0  0  0  0  0  0  0  0  0  0  0
    2.3525   -2.7213    0.8965 H   0  0  0  0  0  0  0  0  0  0  0  0
    0.9989   -3.7935    1.1633 H   0  0  0  0  0  0  0  0  0  0  0  0
    2.5427   -4.4428    0.6652 H   0  0  0  0  0  0  0  0  0  0  0  0
    0.5064   -2.2928   -1.0261 C   0  0  0  0  0  0  0  0  0  0  0  0
    0.2199   -2.1828   -2.0512 H   0  0  0  0  0  0  0  0  0  0  0  0
   -0.3639   -2.4711   -0.4297 H   0  0  0  0  0  0  0  0  0  0  0  0
    0.9899   -1.3983   -0.6930 H   0  0  0  0  0  0  0  0  0  0  0  0
    2.7067   -3.2154   -1.7483 C   0  0  1  0  0  0  0  0  0  0  0  0
    1.2468   -1.2791   -1.0736 C   0  0  2  0  0  0  0  0  0  0  0  0
    2.0806   -0.6351   -1.2606 H   0  0  0  0  0  0  0  0  0  0  0  0
    1.2915   -2.4573   -2.0328 C   0  0  2  0  0  0  0  0  0  0  0  0
    0.4577   -3.1013   -1.8458 H   0  0  0  0  0  0  0  0  0  0  0  0
    1.2278   -1.9485   -3.4637 C   0  0  2  0  0  0  0  0  0  0  0  0
    2.0616   -1.3046   -3.6507 H   0  0  0  0  0  0  0  0  0  0  0  0
    1.2725   -3.1268   -4.4229 C   0  0  1  0  0  0  0  0  0  0  0  0
    0.0880   -4.0416   -4.1572 C   0  0  0  0  0  0  0  0  0  0  0  0
    0.1327   -5.2199   -5.1164 C   0  0  0  0  0  0  0  0  0  0  0  0
   -0.7011   -5.8638   -4.9294 H   0  0  0  0  0  0  0  0  0  0  0  0
    0.0879   -4.8617   -6.1237 H   0  0  0  0  0  0  0  0  0  0  0  0
    1.0429   -5.7635   -4.9714 H   0  0  0  0  0  0  0  0  0  0  0  0
   -1.2048   -3.2693   -4.3633 C   0  0  0  0  0  0  0  0  0  0  0  0
   -2.0386   -3.9132   -4.1763 H   0  0  0  0  0  0  0  0  0  0  0  0
   -1.2363   -2.4398   -3.6881 H   0  0  0  0  0  0  0  0  0  0  0  0
   -1.2496   -2.9111   -5.3706 H   0  0  0  0  0  0  0  0  0  0  0  0
  1  2  1  0  0  0  0
  2  3  1  0  0  0  0
  2  4  1  0  0  0  0
  2  5  1  0  0  0  0
  5  6  3  0  0  0  0
  6  7  1  0  0  0  0
  7  8  1  0  0  0  0
  7 10  1  0  0  0  0
  7 37  1  0  0  0  0
  7 38  1  0  0  0  0
  7 40  1  0  0  0  0
  7 42  1  0  0  0  0
  7 44  1  0  0  0  0
  8  9  3  0  0  0  0
 10 11  1  0  0  0  0
 11 12  1  0  0  0  0
 11 14  1  0  0  0  0
 11 20  1  0  0  0  0
 11 22  1  0  0  0  0
 11 24  1  0  0  0  0
 11 25  1  0  0  0  0
 11 26  1  0  0  0  0
 12 13  3  0  0  0  0
 14 15  3  0  0  0  0
 15 16  1  0  0  0  0
 16 17  1  0  0  0  0
 16 18  1  0  0  0  0
 16 19  1  0  0  0  0
 20 21  1  6  0  0  0
 20 22  1  0  0  0  0
 20 26  1  0  0  0  0
 22 23  1  6  0  0  0
 22 24  1  0  0  0  0
 24 25  1  0  0  0  0
 24 45  1  6  0  0  0
 25 26  1  0  0  0  0
 25 28  1  1  0  0  0
 26 27  1  1  0  0  0
 28 29  1  0  0  0  0
 28 33  1  0  0  0  0
 29 30  1  0  0  0  0
 29 31  1  0  0  0  0
 29 32  1  0  0  0  0
 33 34  1  0  0  0  0
 33 35  1  0  0  0  0
 33 36  1  0  0  0  0
 37 28  1  1  0  0  0
 37 38  1  0  0  0  0
 37 44  1  0  0  0  0
 38 39  1  6  0  0  0
 38 40  1  0  0  0  0
 40 41  1  6  0  0  0
 40 42  1  0  0  0  0
 42 43  1  6  0  0  0
 42 44  1  0  0  0  0
 44 45  1  1  0  0  0
 45 46  1  0  0  0  0
 45 50  1  0  0  0  0
 46 47  1  0  0  0  0
 46 48  1  0  0  0  0
 46 49  1  0  0  0  0
 50 51  1  0  0  0  0
 50 52  1  0  0  0  0
 50 53  1  0  0  0  0
M  CHG  1  11   1
M  END
$$$$
