
  --CCDC--092525    3D                              

 75 87  0  0  0  0  0  0  0  0999 V2000
    1.3403    0.3769    0.1871 Cl     0
    1.7809    3.0790    0.1450 Zr     0
    3.5890    2.3488    2.0629 Cl     0
   -0.2770    4.2547    0.2529 C      0
   -0.5201    2.7015    0.6416 C      0
    0.3698    2.5790    1.9729 C      0
    0.4865    1.4825    2.8124 C      0
    1.1562    1.6339    4.0264 C      0
    1.8003    2.8146    4.3580 C      0
    1.8542    3.8789    3.4571 C      0
    1.1028    3.7979    2.2963 C      0
    0.8061    4.9496    1.2441 C      0
    1.8316    6.4888    0.9765 Si     0
    0.8924    8.0327    1.4933 C      0
    3.4403    6.4003    1.9445 C      0
    2.1562    6.3372   -1.3342 Si     0
    0.6184    6.6922   -2.3565 C      0
    3.5204    7.4799   -1.9388 C      0
    2.7076    4.5531   -1.4577 C      0
    3.9127    3.8467   -0.6427 C      0
    3.7859    2.2300   -0.7904 C      0
    2.5773    2.0786   -1.8426 C      0
    2.1629    0.9182   -2.4694 C      0
    1.2965    1.0390   -3.5556 C      0
    0.7057    2.2503   -3.8808 C      0
    0.9667    3.4063   -3.1481 C      0
    1.9663    3.3445   -2.1960 C      0
    4.9333    0.9019   -0.1070 Si     0
    4.1967   -0.5313    0.8559 C      0
    6.4024    1.6139    0.8207 C      0
    5.7113    0.0888   -1.6056 C      0
   -1.6795    1.4197   -0.0952 Si     0
   -1.8493   -0.0901    1.0027 C      0
   -1.2961    0.8071   -1.8168 C      0
   -3.3901    2.1803   -0.1827 C      0
   -0.4114    4.5957   -0.7832 H      0
    0.0423    0.5291    2.5549 H      0
    1.1815    0.8034    4.7241 H      0
    2.3008    2.8997    5.3169 H      0
    2.4280    4.7697    3.6873 H      0
   -0.0563    8.1018    0.9652 H      0
    1.4699    8.9277    1.2714 H      0
    0.6856    8.0189    2.5613 H      0
    4.0975    7.2239    1.6733 H      0
    3.9635    5.4684    1.7405 H      0
    3.2525    6.4586    3.0143 H      0
    0.7383    6.3180   -3.3710 H      0
    0.4352    7.7632   -2.4126 H      0
   -0.2629    6.2235   -1.9277 H      0
    4.4437    7.3014   -1.3917 H      0
    3.2403    8.5220   -1.8002 H      0
    3.7170    7.3196   -2.9969 H      0
    4.4585    3.8380   -1.5989 H      0
    2.5493   -0.0494   -2.1670 H      0
    1.0533    0.1577   -4.1397 H      0
    0.0071    2.2940   -4.7098 H      0
    0.4467    4.3333   -3.3627 H      0
    3.4796   -0.1999    1.6021 H      0
    4.9808   -1.0832    1.3699 H      0
    3.6920   -1.2237    0.1860 H      0
    6.7097    2.5598    0.3798 H      0
    7.2486    0.9318    0.7702 H      0
    6.1821    1.7891    1.8701 H      0
    4.9528   -0.3876   -2.2232 H      0
    6.4286   -0.6713   -1.3031 H      0
    6.2329    0.8233   -2.2157 H      0
   -2.6967   -0.6975    0.6916 H      0
   -2.0067    0.2035    2.0385 H      0
   -0.9568   -0.7098    0.9590 H      0
   -0.3390    0.2952   -1.8314 H      0
   -1.2857    1.6341   -2.5197 H      0
   -2.0557    0.1010   -2.1457 H      0
   -4.1115    1.4635   -0.5695 H      0
   -3.3925    3.0499   -0.8364 H      0
   -3.7224    2.4969    0.8038 H      0
  1  2  1
  2  3  1
  2  4  1
  4  5  1
  2  5  1
  5  6  1
  2  6  1
  6  7  4
  7  8  4
  8  9  4
  9 10  4
 10 11  4
  2 11  1
  6 11  4
 11 12  1
  2 12  1
  4 12  1
 12 13  1
 13 14  1
 13 15  1
 13 16  1
 16 17  1
 16 18  1
 16 19  1
  2 19  1
 19 20  1
  2 20  1
 20 21  1
  2 21  1
 21 22  1
  2 22  1
 22 23  4
 23 24  4
 24 25  4
 25 26  4
 26 27  4
  2 27  1
 19 27  1
 22 27  4
 21 28  1
 28 29  1
 28 30  1
 28 31  1
  5 32  1
 32 33  1
 32 34  1
 32 35  1
  4 36  1
  7 37  1
  8 38  1
  9 39  1
 10 40  1
 14 41  1
 14 42  1
 14 43  1
 15 44  1
 15 45  1
 15 46  1
 17 47  1
 17 48  1
 17 49  1
 18 50  1
 18 51  1
 18 52  1
 20 53  1
 23 54  1
 24 55  1
 25 56  1
 26 57  1
 29 58  1
 29 59  1
 29 60  1
 30 61  1
 30 62  1
 30 63  1
 31 64  1
 31 65  1
 31 66  1
 33 67  1
 33 68  1
 33 69  1
 34 70  1
 34 71  1
 34 72  1
 35 73  1
 35 74  1
 35 75  1
M  END
$$$$
