
 OpenBabel09252515443D

 75 87  0  0  1  0  0  0  0  0999 V2000
    1.0359   -0.0469   -0.0807 H   0  0  0  0  0  0  0  0  0  0  0  0
    2.1059   -0.0469   -0.0807 C   0  0  0  0  0  3  0  0  0  0  0  0
    2.5200    1.0028   -0.8651 C   0  0  0  0  0  3  0  0  0  0  0  0
    2.3679    0.7308   -1.8887 H   0  0  0  0  0  0  0  0  0  0  0  0
    1.8173    2.2943   -0.6225 C   0  0  0  0  0  3  0  0  0  0  0  0
    2.0971    3.0051   -1.3717 H   0  0  0  0  0  0  0  0  0  0  0  0
    0.3366    2.0427   -0.6874 C   0  0  1  0  0  0  0  0  0  0  0  0
    0.1424    4.2641   -0.5416 C   0  0  1  0  0  0  0  0  0  0  0  0
    0.1040    6.0582   -0.0159 Si  0  0  0  0  0  0  0  0  0  0  0  0
   -1.6719    6.6440   -0.0198 C   0  0  0  0  0  0  0  0  0  0  0  0
   -2.2445    6.0511    0.6625 H   0  0  0  0  0  0  0  0  0  0  0  0
   -1.7096    7.6702    0.2809 H   0  0  0  0  0  0  0  0  0  0  0  0
   -2.0776    6.5458   -1.0050 H   0  0  0  0  0  0  0  0  0  0  0  0
    0.8132    6.2298    1.7059 C   0  0  0  0  0  0  0  0  0  0  0  0
    1.8294    5.8946    1.7081 H   0  0  0  0  0  0  0  0  0  0  0  0
    0.7755    7.2560    2.0066 H   0  0  0  0  0  0  0  0  0  0  0  0
    0.2406    5.6369    2.3882 H   0  0  0  0  0  0  0  0  0  0  0  0
    1.1048    7.0944   -1.2083 C   0  0  0  0  0  0  0  0  0  0  0  0
    2.1209    6.7592   -1.2061 H   0  0  0  0  0  0  0  0  0  0  0  0
    0.6990    6.9962   -2.1935 H   0  0  0  0  0  0  0  0  0  0  0  0
    1.0670    8.1206   -0.9076 H   0  0  0  0  0  0  0  0  0  0  0  0
    1.4909   -3.5577   -2.4340 C   0  0  1  0  0  0  0  0  0  0  0  0
    1.8283   -4.5340   -2.7130 H   0  0  0  0  0  0  0  0  0  0  0  0
    0.7942   -2.3809   -1.7705 C   0  0  1  0  0  0  0  0  0  0  0  0
    1.3252   -2.2818   -0.5135 C   0  0  1  0  0  0  0  0  0  0  0  0
    2.5626   -1.4339   -0.4868 C   0  0  0  0  0  3  0  0  0  0  0  0
    3.0170   -1.4077   -1.4552 H   0  0  0  0  0  0  0  0  0  0  0  0
   -0.3413    2.1738   -1.8443 Zr  0  0  0  0  0  0  0  0  0  0  0  0
   -1.9143    2.3834    0.4262 Cl  0  0  0  0  0  0  0  0  0  0  0  0
    1.0563    2.0341   -4.2317 Cl  0  0  0  0  0  0  0  0  0  0  0  0
   -1.7144    1.7337   -2.0836 C   0  0  2  0  0  0  0  0  0  0  0  0
   -2.3460    1.9858   -1.2574 H   0  0  0  0  0  0  0  0  0  0  0  0
   -2.2202    2.4216   -3.3543 C   0  0  2  0  0  0  0  0  0  0  0  0
   -3.8431    2.4651   -4.2824 Si  0  0  0  0  0  0  0  0  0  0  0  0
   -3.6306    3.4401   -5.8639 C   0  0  0  0  0  0  0  0  0  0  0  0
   -2.8841    2.9741   -6.4726 H   0  0  0  0  0  0  0  0  0  0  0  0
   -4.5592    3.4651   -6.3949 H   0  0  0  0  0  0  0  0  0  0  0  0
   -3.3270    4.4389   -5.6291 H   0  0  0  0  0  0  0  0  0  0  0  0
   -4.3737    0.7196   -4.6927 C   0  0  0  0  0  0  0  0  0  0  0  0
   -4.4953    0.1617   -3.7878 H   0  0  0  0  0  0  0  0  0  0  0  0
   -5.3023    0.7446   -5.2237 H   0  0  0  0  0  0  0  0  0  0  0  0
   -3.6272    0.2536   -5.3014 H   0  0  0  0  0  0  0  0  0  0  0  0
   -5.1477    3.2794   -3.2185 C   0  0  0  0  0  0  0  0  0  0  0  0
   -5.2693    2.7215   -2.3136 H   0  0  0  0  0  0  0  0  0  0  0  0
   -4.8441    4.2782   -2.9837 H   0  0  0  0  0  0  0  0  0  0  0  0
   -6.0763    3.3045   -3.7496 H   0  0  0  0  0  0  0  0  0  0  0  0
   -1.0212    3.1920   -3.9305 C   0  0  2  0  0  0  0  0  0  0  0  0
   -1.2199    4.0153   -5.1927 C   0  0  0  0  0  3  0  0  0  0  0  0
   -0.3419    3.9531   -5.8010 H   0  0  0  0  0  0  0  0  0  0  0  0
   -2.4119    3.4763   -5.9667 C   0  0  0  0  0  3  0  0  0  0  0  0
   -3.2899    3.5385   -5.3584 H   0  0  0  0  0  0  0  0  0  0  0  0
   -2.6106    4.2996   -7.2289 C   0  0  0  0  0  3  0  0  0  0  0  0
   -3.2140    5.1830   -7.2496 H   0  0  0  0  0  0  0  0  0  0  0  0
    1.4665    3.5166   -3.4376 C   0  0  0  0  0  3  0  0  0  0  0  0
    1.7833    4.3492   -2.8450 H   0  0  0  0  0  0  0  0  0  0  0  0
    0.1796    2.8008   -3.0608 C   0  0  2  0  0  0  0  0  0  0  0  0
   -1.7197    0.2292   -2.2745 C   0  0  2  0  0  0  0  0  0  0  0  0
   -0.5988   -0.4409   -1.8456 Si  0  0  0  0  0  0  0  0  0  0  0  0
   -0.3030    1.1599   -2.7659 C   0  0  0  0  0  0  0  0  0  0  0  0
   -1.2196    1.6896   -2.9213 H   0  0  0  0  0  0  0  0  0  0  0  0
    0.3649    1.7646   -2.1886 H   0  0  0  0  0  0  0  0  0  0  0  0
    0.1449    0.9370   -3.7117 H   0  0  0  0  0  0  0  0  0  0  0  0
    0.4764   -0.9928   -0.4186 C   0  0  0  0  0  0  0  0  0  0  0  0
    1.1499   -0.1985   -0.1730 H   0  0  0  0  0  0  0  0  0  0  0  0
   -0.1163   -1.2357    0.4385 H   0  0  0  0  0  0  0  0  0  0  0  0
    1.0352   -1.8535   -0.7214 H   0  0  0  0  0  0  0  0  0  0  0  0
   -0.6308   -1.9240   -1.9895 Si  0  0  0  0  0  0  0  0  0  0  0  0
   -2.0021   -2.8671   -2.8420 C   0  0  0  0  0  0  0  0  0  0  0  0
   -1.9412   -3.9126   -2.6225 H   0  0  0  0  0  0  0  0  0  0  0  0
   -2.9231   -2.4761   -2.4627 H   0  0  0  0  0  0  0  0  0  0  0  0
   -1.9626   -2.7222   -3.9014 H   0  0  0  0  0  0  0  0  0  0  0  0
   -1.8045   -2.8855   -0.8965 C   0  0  0  0  0  0  0  0  0  0  0  0
   -1.5621   -2.8336    0.1444 H   0  0  0  0  0  0  0  0  0  0  0  0
   -2.7488   -2.4121   -1.0668 H   0  0  0  0  0  0  0  0  0  0  0  0
   -1.8595   -3.9103   -1.1992 H   0  0  0  0  0  0  0  0  0  0  0  0
  1  2  1  0  0  0  0
  2  3  1  0  0  0  0
  2 26  1  0  0  0  0
  3  5  1  0  0  0  0
  3  4  1  0  0  0  0
  5  6  1  0  0  0  0
  7  5  1  1  0  0  0
  7  8  1  0  0  0  0
  7 25  1  0  0  0  0
  7 28  1  0  0  0  0
  8 22  1  0  0  0  0
  8 28  1  0  0  0  0
  8  9  1  1  0  0  0
  9 10  1  0  0  0  0
  9 14  1  0  0  0  0
  9 18  1  0  0  0  0
 10 11  1  0  0  0  0
 10 12  1  0  0  0  0
 10 13  1  0  0  0  0
 14 15  1  0  0  0  0
 14 16  1  0  0  0  0
 14 17  1  0  0  0  0
 18 19  1  0  0  0  0
 18 20  1  0  0  0  0
 18 21  1  0  0  0  0
 22 24  1  0  0  0  0
 22 28  1  0  0  0  0
 22 23  1  6  0  0  0
 24 25  1  0  0  0  0
 24 28  1  0  0  0  0
 24 67  1  1  0  0  0
 25 26  1  1  0  0  0
 25 28  1  0  0  0  0
 26 27  1  0  0  0  0
 28 31  1  0  0  0  0
 28 33  1  0  0  0  0
 28 47  1  0  0  0  0
 28 56  1  0  0  0  0
 28 57  1  0  0  0  0
 28 29  1  0  0  0  0
 28 30  1  0  0  0  0
 31 33  1  0  0  0  0
 31 57  1  0  0  0  0
 31 32  1  6  0  0  0
 33 47  1  0  0  0  0
 33 34  1  6  0  0  0
 34 35  1  0  0  0  0
 34 39  1  0  0  0  0
 34 43  1  0  0  0  0
 35 36  1  0  0  0  0
 35 37  1  0  0  0  0
 35 38  1  0  0  0  0
 39 40  1  0  0  0  0
 39 41  1  0  0  0  0
 39 42  1  0  0  0  0
 43 44  1  0  0  0  0
 43 45  1  0  0  0  0
 43 46  1  0  0  0  0
 47 48  1  6  0  0  0
 47 56  1  0  0  0  0
 48 50  1  0  0  0  0
 48 49  1  0  0  0  0
 50 52  1  0  0  0  0
 50 51  1  0  0  0  0
 52 54  1  0  0  0  0
 52 53  1  0  0  0  0
 54 55  1  0  0  0  0
 56 54  1  1  0  0  0
 56 57  1  0  0  0  0
 57 58  1  6  0  0  0
 58 67  1  0  0  0  0
 58 59  1  0  0  0  0
 58 63  1  0  0  0  0
 59 60  1  0  0  0  0
 59 61  1  0  0  0  0
 59 62  1  0  0  0  0
 63 64  1  0  0  0  0
 63 65  1  0  0  0  0
 63 66  1  0  0  0  0
 67 68  1  0  0  0  0
 67 72  1  0  0  0  0
 68 69  1  0  0  0  0
 68 70  1  0  0  0  0
 68 71  1  0  0  0  0
 72 73  1  0  0  0  0
 72 74  1  0  0  0  0
 72 75  1  0  0  0  0
M  END
$$$$
