
  --CCDC--092525    3D                              

 45 50  0  0  0  0  0  0  0  0999 V2000
    4.6927   -2.6527   -4.1712 H      0
    5.7156   -2.6196   -3.8015 C      0
    6.1381   -3.6191   -3.8812 H      0
    6.2897   -1.9570   -4.4461 H      0
    5.7639   -2.0244   -2.0298 Si     0
    4.9457   -0.4237   -1.8075 C      0
    4.8868    0.1887   -0.5461 C      0
    4.9288    1.0397    1.3508 Cr     0
    3.2103    1.4568    0.2783 C      0
    2.2511    1.6677   -0.2961 O      0
    5.1287    2.3326   -0.2537 C      0
    5.2387    3.0444   -1.1370 O      0
    4.3929    1.8698    2.9555 C      0
    3.8380    2.2692    2.0158 H      0
    5.8395    2.2573    2.5662 C      0
    6.1854    2.9732    1.6820 H      0
    6.7185    1.1504    2.0437 C      0
    7.1988    1.0301    0.9586 H      0
    6.1930   -0.2631    2.0020 C      0
    6.0326   -0.9463    1.0407 H      0
    4.8000   -0.6070    2.4786 C      0
    3.8841   -1.0398    1.8411 H      0
    3.9588    0.4509    2.8994 C      0
    3.3602    0.4803    1.8999 H      0
    4.2702    0.2912   -3.3296 Si     0
    2.9463   -0.8220   -4.0410 C      0
    3.2926   -1.3008   -4.9542 H      0
    2.0476   -0.2556   -4.2751 H      0
    2.6797   -1.6029   -3.3320 H      0
    3.4628    1.9715   -3.2007 C      0
    3.3334    2.2585   -2.1594 H      0
    2.4785    1.9547   -3.6658 H      0
    4.0620    2.7310   -3.6999 H      0
    5.5517    0.4690   -4.6788 C      0
    6.5532    0.5199   -4.2585 H      0
    5.3793    1.3733   -5.2579 H      0
    5.5122   -0.3801   -5.3582 H      0
    5.0986   -3.4329   -0.9965 C      0
    4.0876   -3.6943   -1.3019 H      0
    5.0797   -3.1644    0.0578 H      0
    5.7235   -4.3164   -1.1097 H      0
    7.5772   -1.9304   -1.5850 C      0
    8.0507   -2.9029   -1.7022 H      0
    7.7038   -1.6134   -0.5514 H      0
    8.0973   -1.2217   -2.2260 H      0
  1  2  1
  2  3  1
  2  4  1
  2  5  1
  5  6  1
  6  7  4
  7  8  4
  8  9  1
  9 10  3
  8 11  1
 11 12  3
  8 13  1
 13 14  1
 13 15  4
  8 15  1
 15 16  1
 15 17  4
  8 17  1
 17 18  1
 17 19  4
  8 19  1
 19 20  1
 19 21  4
  8 21  1
 21 22  1
 21 23  4
 13 23  4
  8 23  1
 23 24  1
  6 25  1
 25 26  1
 26 27  1
 26 28  1
 26 29  1
 25 30  1
 30 31  1
 30 32  1
 30 33  1
 25 34  1
 34 35  1
 34 36  1
 34 37  1
  5 38  1
 38 39  1
 38 40  1
 38 41  1
  5 42  1
 42 43  1
 42 44  1
 42 45  1
M  END
$$$$
