
 OpenBabel09252514463D

 35 38  0  0  0  0  0  0  0  0999 V2000
    1.0258   -0.1724    0.2512 F   0  0  0  0  0  0  0  0  0  0  0  0
    2.3853   -0.1423    0.1647 C   0  0  0  0  0  0  0  0  0  0  0  0
    2.8136    0.5812    1.2344 F   0  0  0  0  0  0  0  0  0  0  0  0
    2.7971   -1.4220    0.3924 F   0  0  0  0  0  0  0  0  0  0  0  0
    2.8589    0.4135   -1.1553 C   0  0  0  0  0  0  0  0  0  0  0  0
    3.4924   -0.4064   -2.0982 C   0  0  0  0  0  0  0  0  0  0  0  0
    3.8715    0.1098   -3.3349 C   0  0  0  0  0  0  0  0  0  0  0  0
    3.6085    1.4449   -3.6486 C   0  0  0  0  0  0  0  0  0  0  0  0
    3.0070    2.2909   -2.7127 C   0  0  0  0  0  0  0  0  0  0  0  0
    2.6393    1.7674   -1.4681 C   0  0  0  0  0  0  0  0  0  0  0  0
    2.8137    3.6711   -3.0048 N   0  0  0  0  0  0  0  0  0  0  0  0
    2.3736    4.0526   -4.6693 C   0  0  0  0  0  0  0  0  0  0  0  0
    2.2090    5.7573   -4.9607 C   0  0  0  0  0  0  0  0  0  0  0  0
    3.4016    6.3505   -6.1212 Cl  0  0  0  0  0  0  0  0  0  0  0  0
    1.1941    6.7666   -4.7605 O   0  0  0  0  0  0  0  0  0  0  0  0
    0.9783    7.0040   -3.3262 C   0  0  0  0  0  0  0  0  0  0  0  0
   -0.5855    8.0328   -2.9719 Br  0  0  0  0  0  0  0  0  0  0  0  0
    2.1808    7.5060   -2.4439 C   0  0  0  0  0  0  0  0  0  0  0  0
    3.2067    6.3600   -2.4431 C   0  0  0  0  0  0  0  0  0  0  0  0
    2.6411    5.7680   -3.6093 C   0  0  0  0  0  0  0  0  0  0  0  0
    1.0729    5.6011   -2.8975 C   0  0  0  0  0  0  0  0  0  0  0  0
   -0.6201    4.4229   -3.5646 I   0  0  0  0  0  0  0  0  0  0  0  0
    3.2077    4.7426   -1.9004 C   0  0  0  0  0  0  0  0  0  0  0  0
    3.5045    4.4707   -0.7426 O   0  0  0  0  0  0  0  0  0  0  0  0
    3.6963   -1.4520   -1.8715 H   0  0  0  0  0  0  0  0  0  0  0  0
    4.3867   -0.5242   -4.0530 H   0  0  0  0  0  0  0  0  0  0  0  0
    3.9607    1.8144   -4.6055 H   0  0  0  0  0  0  0  0  0  0  0  0
    2.1480    2.4010   -0.7305 H   0  0  0  0  0  0  0  0  0  0  0  0
    3.2345    3.7028   -5.2525 H   0  0  0  0  0  0  0  0  0  0  0  0
    1.5127    3.4454   -4.9465 H   0  0  0  0  0  0  0  0  0  0  0  0
    1.8856    7.7327   -1.4122 H   0  0  0  0  0  0  0  0  0  0  0  0
    2.6187    8.4057   -2.8929 H   0  0  0  0  0  0  0  0  0  0  0  0
    4.2406    6.7121   -2.5206 H   0  0  0  0  0  0  0  0  0  0  0  0
    3.6314    5.2870   -3.8190 H   0  0  0  0  0  0  0  0  0  0  0  0
    1.0448    5.5138   -1.8002 H   0  0  0  0  0  0  0  0  0  0  0  0
  1  2  1  0  0  0  0
  2  3  1  0  0  0  0
  2  4  1  0  0  0  0
  2  5  1  0  0  0  0
  5  6  1  0  0  0  0
  5 10  2  0  0  0  0
  6  7  2  0  0  0  0
  6 25  1  0  0  0  0
  7  8  1  0  0  0  0
  7 26  1  0  0  0  0
  8  9  2  0  0  0  0
  8 27  1  0  0  0  0
  9 10  1  0  0  0  0
  9 11  1  0  0  0  0
 10 28  1  0  0  0  0
 11 12  1  0  0  0  0
 11 23  1  0  0  0  0
 12 13  1  0  0  0  0
 12 29  1  0  0  0  0
 12 30  1  0  0  0  0
 13 14  1  0  0  0  0
 13 15  1  0  0  0  0
 13 20  1  0  0  0  0
 15 16  1  0  0  0  0
 16 17  1  0  0  0  0
 16 18  1  0  0  0  0
 16 21  1  0  0  0  0
 18 19  1  0  0  0  0
 18 31  1  0  0  0  0
 18 32  1  0  0  0  0
 19 20  1  0  0  0  0
 19 23  1  0  0  0  0
 19 33  1  0  0  0  0
 20 21  1  0  0  0  0
 20 34  1  0  0  0  0
 21 22  1  0  0  0  0
 21 35  1  0  0  0  0
 23 24  2  0  0  0  0
M  END
$$$$
