
     RDKit          3D

 62 63  0  0  0  0  0  0  0  0999 V2000
   -1.7839    0.1623    1.7919 C   0  0  0  0  0  0  0  0  0  0  0  0
   -1.4218    0.6170    0.0248 Pt  0  0  0  0  0  6  0  0  0  0  0  0
   -1.6872    0.8001   -1.7958 C   0  0  0  0  0  0  0  0  0  0  0  0
   -0.6868    2.4682    0.2191 C   0  0  0  0  0  0  0  0  0  0  0  0
    0.4941    0.1072    0.1438 N   0  0  0  0  0  0  0  0  0  0  0  0
    1.3626   -0.0068   -0.8303 N   0  0  0  0  0  0  0  0  0  0  0  0
    2.5524   -0.3114   -0.4134 C   0  0  0  0  0  0  0  0  0  0  0  0
    3.5267   -0.4302   -1.4871 C   0  0  0  0  0  0  0  0  0  0  0  0
    4.8031    0.2646   -1.0629 C   0  0  0  0  0  0  0  0  0  0  0  0
    5.7421   -0.7045   -0.3592 C   0  0  0  0  0  0  0  0  0  0  0  0
    5.5973   -0.5639    1.1396 C   0  0  0  0  0  0  0  0  0  0  0  0
    4.4626   -1.4595    1.5936 C   0  0  0  0  0  0  0  0  0  0  0  0
    3.2931   -0.6923    2.0986 C   0  0  0  0  0  0  0  0  0  0  0  0
    2.4876   -0.4090    0.9016 C   0  0  0  0  0  0  0  0  0  0  0  0
    1.2586   -0.1551    1.1814 N   0  0  0  0  0  0  0  0  0  0  0  0
   -3.0836    1.4677    0.2898 P   0  0  0  0  0  4  0  0  0  0  0  0
   -4.5677    0.4304    0.3240 C   0  0  0  0  0  0  0  0  0  0  0  0
   -3.4133    2.6288    1.7386 C   0  0  0  0  0  0  0  0  0  0  0  0
   -3.6855    2.7476   -0.9192 C   0  0  0  0  0  0  0  0  0  0  0  0
   -1.7396   -1.3310   -0.4234 P   0  0  0  0  0  4  0  0  0  0  0  0
   -3.3557   -1.8005   -0.8840 C   0  0  0  0  0  0  0  0  0  0  0  0
   -0.6508   -2.0847   -1.7528 C   0  0  0  0  0  0  0  0  0  0  0  0
   -1.2762   -2.5564    0.8616 C   0  0  0  0  0  0  0  0  0  0  0  0
   -1.0497   -0.5900    2.2906 H   0  0  0  0  0  0  0  0  0  0  0  0
   -1.4043    0.9067    2.5808 H   0  0  0  0  0  0  0  0  0  0  0  0
   -2.6312   -0.3118    2.2695 H   0  0  0  0  0  0  0  0  0  0  0  0
   -1.7448    1.8574   -2.2463 H   0  0  0  0  0  0  0  0  0  0  0  0
   -0.7497    0.6286   -2.4374 H   0  0  0  0  0  0  0  0  0  0  0  0
   -2.4711    0.4232   -2.4532 H   0  0  0  0  0  0  0  0  0  0  0  0
   -1.2546    3.2365   -0.1474 H   0  0  0  0  0  0  0  0  0  0  0  0
    0.2073    2.6763   -0.4373 H   0  0  0  0  0  0  0  0  0  0  0  0
   -0.3489    2.6552    1.2219 H   0  0  0  0  0  0  0  0  0  0  0  0
    3.2272    0.0379   -2.4402 H   0  0  0  0  0  0  0  0  0  0  0  0
    3.6673   -1.4997   -1.7129 H   0  0  0  0  0  0  0  0  0  0  0  0
    5.3240    0.7748   -1.9004 H   0  0  0  0  0  0  0  0  0  0  0  0
    4.5267    1.0563   -0.3373 H   0  0  0  0  0  0  0  0  0  0  0  0
    6.7879   -0.4185   -0.6587 H   0  0  0  0  0  0  0  0  0  0  0  0
    5.5627   -1.7467   -0.7002 H   0  0  0  0  0  0  0  0  0  0  0  0
    5.3105    0.4993    1.3809 H   0  0  0  0  0  0  0  0  0  0  0  0
    6.5505   -0.8513    1.6390 H   0  0  0  0  0  0  0  0  0  0  0  0
    4.8225   -2.1142    2.4136 H   0  0  0  0  0  0  0  0  0  0  0  0
    4.1648   -2.1695    0.7796 H   0  0  0  0  0  0  0  0  0  0  0  0
    2.7210   -1.3401    2.8237 H   0  0  0  0  0  0  0  0  0  0  0  0
    3.6041    0.1855    2.6645 H   0  0  0  0  0  0  0  0  0  0  0  0
   -5.4163    1.1162    0.6753 H   0  0  0  0  0  0  0  0  0  0  0  0
   -4.9518    0.1133   -0.6268 H   0  0  0  0  0  0  0  0  0  0  0  0
   -4.5552   -0.2782    1.1775 H   0  0  0  0  0  0  0  0  0  0  0  0
   -3.1324    2.0931    2.6643 H   0  0  0  0  0  0  0  0  0  0  0  0
   -2.7799    3.5055    1.6663 H   0  0  0  0  0  0  0  0  0  0  0  0
   -4.4633    2.8167    1.7778 H   0  0  0  0  0  0  0  0  0  0  0  0
   -3.0651    3.6347   -0.9223 H   0  0  0  0  0  0  0  0  0  0  0  0
   -3.7196    2.2342   -1.9266 H   0  0  0  0  0  0  0  0  0  0  0  0
   -4.6891    3.0155   -0.7023 H   0  0  0  0  0  0  0  0  0  0  0  0
   -3.7460   -1.3298   -1.8355 H   0  0  0  0  0  0  0  0  0  0  0  0
   -4.1092   -2.0141   -0.1194 H   0  0  0  0  0  0  0  0  0  0  0  0
   -3.2247   -2.8746   -1.2969 H   0  0  0  0  0  0  0  0  0  0  0  0
    0.3822   -2.1182   -1.4178 H   0  0  0  0  0  0  0  0  0  0  0  0
   -1.0676   -3.0595   -1.9011 H   0  0  0  0  0  0  0  0  0  0  0  0
   -0.8273   -1.5069   -2.6927 H   0  0  0  0  0  0  0  0  0  0  0  0
   -0.1914   -2.5635    1.0460 H   0  0  0  0  0  0  0  0  0  0  0  0
   -1.6208   -3.4847    0.4774 H   0  0  0  0  0  0  0  0  0  0  0  0
   -1.8728   -2.3843    1.8061 H   0  0  0  0  0  0  0  0  0  0  0  0
  1  2  1  0
  2  3  1  0
  2  4  1  0
  2  5  1  0
  5  6  1  0
  6  7  2  0
  7  8  1  0
  8  9  1  0
  9 10  1  0
 10 11  1  0
 11 12  1  0
 12 13  1  0
 13 14  1  0
 14 15  2  0
  2 16  1  0
 16 17  1  0
 16 18  1  0
 16 19  1  0
  2 20  1  0
 20 21  1  0
 20 22  1  0
 20 23  1  0
 15  5  1  0
 14  7  1  0
  1 24  1  0
  1 25  1  0
  1 26  1  0
  3 27  1  0
  3 28  1  0
  3 29  1  0
  4 30  1  0
  4 31  1  0
  4 32  1  0
  8 33  1  0
  8 34  1  0
  9 35  1  0
  9 36  1  0
 10 37  1  0
 10 38  1  0
 11 39  1  0
 11 40  1  0
 12 41  1  0
 12 42  1  0
 13 43  1  0
 13 44  1  0
 17 45  1  0
 17 46  1  0
 17 47  1  0
 18 48  1  0
 18 49  1  0
 18 50  1  0
 19 51  1  0
 19 52  1  0
 19 53  1  0
 21 54  1  0
 21 55  1  0
 21 56  1  0
 22 57  1  0
 22 58  1  0
 22 59  1  0
 23 60  1  0
 23 61  1  0
 23 62  1  0
M  RAD  2  16   2  20   2
M  END
