
  --CCDC--092525    3D                              

 62 63  0  0  0  0  0  0  0  0999 V2000
   -0.0267    0.0193   -0.0954 C      0
    1.9186   -0.0086   -0.7092 Pt     0
    1.9671    2.0308   -0.7070 C      0
    2.5894    0.0343    1.2170 C      0
    1.2388   -0.0401   -2.6321 N      0
    0.0026   -0.4971   -2.9700 N      0
   -0.0727   -0.2785   -4.2677 C      0
   -1.2841   -0.7072   -5.0327 C      0
   -1.1131   -2.0581   -5.7114 C      0
    0.2158   -2.3220   -6.3833 C      0
    0.6377   -1.3001   -7.4566 C      0
    1.8126   -0.4409   -7.0657 C      0
    1.5857    0.7037   -6.0902 C      0
    1.1274    0.3134   -4.7077 C      0
    1.9430    0.4601   -3.6829 N      0
    4.1807   -0.0182   -1.5502 P      0
    4.4212   -1.3013   -2.8028 C      0
    5.3555   -0.2754   -0.1984 C      0
    4.5576    1.5855   -2.2984 C      0
    1.8770   -2.4180   -0.5784 P      0
    0.5185   -2.9329    0.4993 C      0
    3.4141   -3.0712    0.1164 C      0
    1.6038   -3.1493   -2.2108 C      0
   -0.4745    0.9766   -0.3539 H      0
   -0.5747   -0.7814   -0.5874 H      0
   -0.0689   -0.1212    0.9827 H      0
    1.0973    2.4135   -0.1770 H      0
    1.9564    2.3950   -1.7321 H      0
    2.8730    2.3716   -0.2102 H      0
    3.3502   -0.7307    1.3549 H      0
    1.7590   -0.1539    1.8943 H      0
    3.0164    1.0121    1.4301 H      0
   -1.4945    0.0403   -5.7962 H      0
   -2.1252   -0.7692   -4.3439 H      0
   -1.8889   -2.1456   -6.4706 H      0
   -1.2576   -2.8275   -4.9544 H      0
    0.1625   -3.3013   -6.8567 H      0
    0.9842   -2.3331   -5.6118 H      0
   -0.2103   -0.6473   -7.6584 H      0
    0.8999   -1.8451   -8.3623 H      0
    2.2120   -0.0075   -7.9814 H      0
    2.5574   -1.0990   -6.6206 H      0
    0.8305    1.3613   -6.5181 H      0
    2.5244    1.2463   -5.9891 H      0
    3.8803   -1.0591   -3.7149 H      0
    4.0664   -2.2659   -2.4481 H      0
    5.4754   -1.4005   -3.0530 H      0
    5.2612   -1.2734    0.2217 H      0
    5.1854    0.4438    0.6001 H      0
    6.3778   -0.1533   -0.5500 H      0
    3.9441    1.7601   -3.1793 H      0
    5.6018    1.6327   -2.6000 H      0
    4.3733    2.3926   -1.5926 H      0
    0.5333   -4.0103    0.6498 H      0
   -0.4424   -2.6653    0.0649 H      0
    0.5957   -2.4538    1.4730 H      0
    4.2669   -2.8125   -0.5064 H      0
    3.3696   -4.1555    0.1942 H      0
    3.5890   -2.6695    1.1122 H      0
    0.5453   -3.1502   -2.4610 H      0
    1.9550   -4.1788   -2.2328 H      0
    2.1333   -2.5966   -2.9828 H      0
  1  2  1
  2  3  1
  2  4  1
  2  5  1
  5  6  1
  6  7  2
  7  8  1
  8  9  1
  9 10  1
 10 11  1
 11 12  1
 12 13  1
 13 14  1
  7 14  1
 14 15  2
  5 15  1
  2 16  1
 16 17  1
 16 18  1
 16 19  1
  2 20  1
 20 21  1
 20 22  1
 20 23  1
  1 24  1
  1 25  1
  1 26  1
  3 27  1
  3 28  1
  3 29  1
  4 30  1
  4 31  1
  4 32  1
  8 33  1
  8 34  1
  9 35  1
  9 36  1
 10 37  1
 10 38  1
 11 39  1
 11 40  1
 12 41  1
 12 42  1
 13 43  1
 13 44  1
 17 45  1
 17 46  1
 17 47  1
 18 48  1
 18 49  1
 18 50  1
 19 51  1
 19 52  1
 19 53  1
 21 54  1
 21 55  1
 21 56  1
 22 57  1
 22 58  1
 22 59  1
 23 60  1
 23 61  1
 23 62  1
M  END
$$$$
