
  --CCDC--092525    3D                              

 75 79  0  0  0  0  0  0  0  0999 V2000
    2.3280    0.1665   -0.0694 H      0
    2.5003    1.2376   -0.0814 C      0
    2.5658    1.9204   -1.2747 C      0
    2.4357    1.3527   -2.1900 H      0
    2.7851    3.2734   -1.3655 C      0
    2.9830    4.0509   -0.1606 C      0
    2.8796    3.3136    1.0540 C      0
    2.6475    1.9207    1.0756 C      0
    2.5852    1.3975    2.0241 H      0
    2.9952    3.9733    2.2570 C      0
    2.8854    3.4169    3.1820 H      0
    3.2476    5.3253    2.3081 C      0
    3.3227    5.9527    3.5718 C      0
    3.1649    5.3710    4.4740 H      0
    3.5880    7.2759    3.6613 C      0
    3.6277    7.7646    4.6292 H      0
    3.8215    7.9912    2.5083 C      0
    4.0596    9.0460    2.5972 H      0
    3.7835    7.4369    1.2539 C      0
    3.4255    6.0424    1.0916 C      0
    3.2437    5.3920   -0.0986 N      0
    3.2180    6.5512   -1.8439 Ir     0
    3.0336    7.8084   -2.8800 H      0
    4.3397    5.6805   -2.6599 H      0
    1.3705    7.5705   -0.6954 Cl     0
    1.6986    5.1389   -3.1665 P      0
    1.6010    6.2700   -4.5811 C      0
    1.1603    7.2203   -4.2421 H      0
    0.7141    5.6837   -5.6837 C      0
    1.2289    4.8775   -6.2020 H      0
    0.4639    6.4457   -6.4190 H      0
   -0.2131    5.2803   -5.2855 H      0
    2.9563    6.5509   -5.2389 C      0
    2.8187    6.8162   -6.2851 H      0
    3.5877    5.6657   -5.2011 H      0
    3.4939    7.3653   -4.7633 H      0
   -0.0023    4.8876   -2.5748 C      0
   -0.4345    4.0833   -3.1901 H      0
   -0.9014    6.1126   -2.7747 C      0
   -1.9454    5.8385   -2.6377 H      0
   -0.7962    6.5299   -3.7720 H      0
   -0.6764    6.9004   -2.0645 H      0
   -0.1205    4.4509   -1.1129 C      0
    0.0894    3.3909   -0.9990 H      0
    0.5650    5.0089   -0.4795 H      0
   -1.1310    4.6232   -0.7482 H      0
    2.7688    3.7273   -2.8031 C      0
    2.4084    2.8888   -3.4111 H      0
    3.7921    3.9127   -3.1464 H      0
    5.2424    7.7084   -1.0647 P      0
    6.4416    6.4834   -0.4763 C      0
    5.9020    5.5299   -0.3682 H      0
    7.0487    6.8117    0.8904 C      0
    7.6623    5.9839    1.2397 H      0
    6.2725    6.9863    1.6314 H      0
    7.6803    7.6941    0.8474 H      0
    7.5644    6.2695   -1.4924 C      0
    7.1585    6.0009   -2.4655 H      0
    8.2285    5.4703   -1.1699 H      0
    8.1566    7.1745   -1.6094 H      0
    5.9790    9.3180   -1.4703 C      0
    5.1626   10.0551   -1.5197 H      0
    6.6693    9.3056   -2.8370 C      0
    5.9488    9.2351   -3.6494 H      0
    7.3566    8.4662   -2.9161 H      0
    7.2395   10.2209   -2.9815 H      0
    7.0086    9.8164   -0.4528 C      0
    6.7213    9.5881    0.5699 H      0
    7.1265   10.8951   -0.5326 H      0
    7.9798    9.3650   -0.6414 H      0
    4.2029    8.4427    0.2096 C      0
    3.3572    8.9762   -0.2343 H      0
    4.7846    9.2092    0.7316 H      0
    1.9648    4.4277   -4.3422 H      0
    5.1809    7.7616   -2.4608 H      0
  1  2  1
  2  3  4
  3  4  1
  3  5  4
  5  6  4
  6  7  4
  7  8  4
  2  8  4
  8  9  1
  7 10  4
 10 11  1
 10 12  4
 12 13  4
 13 14  1
 13 15  4
 15 16  1
 15 17  4
 17 18  1
 17 19  4
 19 20  4
 12 20  4
 20 21  4
  6 21  4
 21 22  1
 22 23  1
 22 24  1
 22 25  1
 22 26  1
 26 27  1
 27 28  1
 27 29  1
 29 30  1
 29 31  1
 29 32  1
 27 33  1
 33 34  1
 33 35  1
 33 36  1
 26 37  1
 37 38  1
 37 39  1
 39 40  1
 39 41  1
 39 42  1
 37 43  1
 43 44  1
 43 45  1
 43 46  1
 26 47  1
  5 47  1
 47 48  1
 47 49  1
 22 50  1
 50 51  1
 51 52  1
 51 53  1
 53 54  1
 53 55  1
 53 56  1
 51 57  1
 57 58  1
 57 59  1
 57 60  1
 50 61  1
 61 62  1
 61 63  1
 63 64  1
 63 65  1
 63 66  1
 61 67  1
 67 68  1
 67 69  1
 67 70  1
 50 71  1
 19 71  1
 71 72  1
 71 73  1
 26 74  1
 50 75  1
M  END
$$$$
