
 OpenBabel09252519313D

 28 28  0  0  0  0  0  0  0  0999 V2000
    1.1617   -0.6017    0.0448 H   0  0  0  0  0  0  0  0  0  0  0  0
    2.1774   -0.2273    0.1792 C   0  0  0  0  0  0  0  0  0  0  0  0
    2.7522   -0.2596    1.5505 C   0  0  0  0  0  0  0  0  0  0  0  0
    2.2261   -1.1016    2.4830 C   0  0  0  0  0  0  0  0  0  0  0  0
    1.1148   -1.9538    2.1889 C   0  0  0  0  0  0  0  0  0  0  0  0
    0.2086   -2.6342    1.9388 N   0  0  0  0  0  0  0  0  0  0  0  0
    2.7494   -1.2578    3.7974 C   0  0  0  0  0  0  0  0  0  0  0  0
    3.1690   -1.4147    4.8694 N   0  0  0  0  0  0  0  0  0  0  0  0
    3.9402    0.6993    1.7354 C   0  0  0  0  0  0  0  0  0  0  0  0
    4.7093    0.4426    0.9971 H   0  0  0  0  0  0  0  0  0  0  0  0
    3.5843    1.7104    1.4910 H   0  0  0  0  0  0  0  0  0  0  0  0
    4.7008    0.8124    3.0495 C   0  0  0  0  0  0  0  0  0  0  0  0
    4.0548    1.1317    3.8711 H   0  0  0  0  0  0  0  0  0  0  0  0
    5.1962   -0.1300    3.3022 H   0  0  0  0  0  0  0  0  0  0  0  0
    5.4902    1.5665    2.9482 H   0  0  0  0  0  0  0  0  0  0  0  0
    2.8354    0.1631   -0.9236 C   0  0  0  0  0  0  0  0  0  0  0  0
    3.8543    0.5361   -0.8729 H   0  0  0  0  0  0  0  0  0  0  0  0
    2.3662    0.0280   -2.3000 C   0  0  0  0  0  3  0  0  0  0  0  0
    3.0185    0.8584   -3.3377 C   0  0  0  0  0  3  0  0  0  0  0  0
    3.0664    1.9327   -3.2080 H   0  0  0  0  0  0  0  0  0  0  0  0
    3.7314    0.2151   -4.4316 C   0  0  0  0  0  3  0  0  0  0  0  0
    4.5330    0.7309   -4.9425 H   0  0  0  0  0  0  0  0  0  0  0  0
    3.4883   -1.1880   -4.6997 C   0  0  0  0  0  3  0  0  0  0  0  0
    4.2306   -1.8211   -5.6258 F   0  0  0  0  0  0  0  0  0  0  0  0
    2.5768   -1.9517   -3.8704 C   0  0  0  0  0  3  0  0  0  0  0  0
    2.4851   -3.0202   -4.0095 H   0  0  0  0  0  0  0  0  0  0  0  0
    1.8635   -1.2763   -2.7909 C   0  0  0  0  0  3  0  0  0  0  0  0
    0.8472   -1.5761   -2.5607 H   0  0  0  0  0  0  0  0  0  0  0  0
  1  2  1  0  0  0  0
  2  3  1  0  0  0  0
  2 16  2  0  0  0  0
  3  4  2  0  0  0  0
  3  9  1  0  0  0  0
  4  5  1  0  0  0  0
  4  7  1  0  0  0  0
  5  6  3  0  0  0  0
  7  8  3  0  0  0  0
  9 10  1  0  0  0  0
  9 11  1  0  0  0  0
  9 12  1  0  0  0  0
 12 13  1  0  0  0  0
 12 14  1  0  0  0  0
 12 15  1  0  0  0  0
 16 17  1  0  0  0  0
 16 18  1  0  0  0  0
 18 19  1  0  0  0  0
 18 27  1  0  0  0  0
 19 20  1  0  0  0  0
 19 21  1  0  0  0  0
 21 22  1  0  0  0  0
 21 23  1  0  0  0  0
 23 24  1  0  0  0  0
 23 25  1  0  0  0  0
 25 26  1  0  0  0  0
 25 27  1  0  0  0  0
 27 28  1  0  0  0  0
M  END
$$$$
