
     RDKit          3D

 26 26  0  0  0  0  0  0  0  0999 V2000
    3.3893   -1.1138    0.3626 C   0  0  0  0  0  0  0  0  0  0  0  0
    2.8504    0.2831    0.0762 C   0  0  0  0  0  0  0  0  0  0  0  0
    3.3481    1.2775    1.1180 C   0  0  0  0  0  0  0  0  0  0  0  0
    1.4123    0.2703    0.1559 O   0  0  0  0  0  0  0  0  0  0  0  0
    0.7564   -0.1189   -0.9644 C   0  0  0  0  0  0  0  0  0  0  0  0
    1.2683   -0.4537   -2.0202 O   0  0  0  0  0  0  0  0  0  0  0  0
   -0.7163   -0.0891   -0.7431 C   0  0  0  0  0  0  0  0  0  0  0  0
   -1.5522   -0.4667   -1.8059 C   0  0  0  0  0  0  0  0  0  0  0  0
   -2.9428   -0.4581   -1.6547 C   0  0  0  0  0  0  0  0  0  0  0  0
   -3.5011   -0.0685   -0.4304 C   0  0  0  0  0  0  0  0  0  0  0  0
   -2.6775    0.3106    0.6385 C   0  0  0  0  0  0  0  0  0  0  0  0
   -1.2869    0.2992    0.4791 C   0  0  0  0  0  0  0  0  0  0  0  0
   -4.9607   -0.0573   -0.2652 N   0  0  0  0  0  0  0  0  0  0  0  0
   -5.6528   -0.3995   -1.2342 O   0  0  0  0  0  0  0  0  0  0  0  0
   -5.4126    0.2938    0.8339 O   0  0  0  0  0  0  0  0  0  0  0  0
    4.4835   -1.1249    0.3581 H   0  0  0  0  0  0  0  0  0  0  0  0
    3.0351   -1.8299   -0.3861 H   0  0  0  0  0  0  0  0  0  0  0  0
    3.0377   -1.4773    1.3345 H   0  0  0  0  0  0  0  0  0  0  0  0
    3.1770    0.6241   -0.9138 H   0  0  0  0  0  0  0  0  0  0  0  0
    3.0127    0.9966    2.1225 H   0  0  0  0  0  0  0  0  0  0  0  0
    2.9395    2.2741    0.9179 H   0  0  0  0  0  0  0  0  0  0  0  0
    4.4404    1.3421    1.1171 H   0  0  0  0  0  0  0  0  0  0  0  0
   -1.1209   -0.7703   -2.7596 H   0  0  0  0  0  0  0  0  0  0  0  0
   -3.5684   -0.7554   -2.4945 H   0  0  0  0  0  0  0  0  0  0  0  0
   -3.0977    0.6155    1.5954 H   0  0  0  0  0  0  0  0  0  0  0  0
   -0.6607    0.5963    1.3181 H   0  0  0  0  0  0  0  0  0  0  0  0
  1  2  1  0
  2  3  1  0
  2  4  1  0
  4  5  1  0
  5  6  2  0
  5  7  1  0
  7  8  2  0
  8  9  1  0
  9 10  2  0
 10 11  1  0
 11 12  2  0
 10 13  1  0
 13 14  1  0
 13 15  2  0
 12  7  1  0
  1 16  1  0
  1 17  1  0
  1 18  1  0
  2 19  1  0
  3 20  1  0
  3 21  1  0
  3 22  1  0
  8 23  1  0
  9 24  1  0
 11 25  1  0
 12 26  1  0
M  CHG  2  13   1  14  -1
M  END
