
 OpenBabel09252517043D

 42 41  0  0  0  0  0  0  0  0999 V2000
    0.9254    0.0657    0.0110 C   0  0  0  0  0  0  0  0  0  0  0  0
    0.2188    1.1455    1.6930 Pt  0  0  0  0  0  0  0  0  0  0  0  0
    1.9497    2.3681    1.6354 C   0  0  0  0  0  0  0  0  0  0  0  0
   -0.7806    2.4996    0.4038 C   0  0  0  0  0  0  0  0  0  0  0  0
   -0.4712    2.1998    3.3353 N   0  0  0  0  0  0  0  0  0  0  0  0
    0.2156    3.1582    3.8096 N   0  3  0  0  0  0  0  0  0  0  0  0
    0.9025    4.1166    4.2838 N   0  5  0  0  0  0  0  0  0  0  0  0
   -1.7653   -0.2559    1.7591 P   0  0  0  0  0  4  0  0  0  0  0  0
   -1.3586   -1.9197    1.1148 C   0  0  0  0  0  0  0  0  0  0  0  0
   -2.3548   -0.3977    3.4858 C   0  0  0  0  0  0  0  0  0  0  0  0
   -3.0767    0.4944    0.7265 C   0  0  0  0  0  0  0  0  0  0  0  0
    1.3643   -0.4066    3.1707 P   0  0  0  0  0  4  0  0  0  0  0  0
    0.7194   -2.0973    2.8979 C   0  0  0  0  0  0  0  0  0  0  0  0
    3.1594   -0.3739    2.8166 C   0  0  0  0  0  0  0  0  0  0  0  0
    1.0767    0.0825    4.9105 C   0  0  0  0  0  0  0  0  0  0  0  0
    0.5688    0.5284   -0.8854 H   0  0  0  0  0  0  0  0  0  0  0  0
    0.5688   -0.9420    0.0585 H   0  0  0  0  0  0  0  0  0  0  0  0
    1.9954    0.0657    0.0110 H   0  0  0  0  0  0  0  0  0  0  0  0
    2.2944    2.4510    0.6258 H   0  0  0  0  0  0  0  0  0  0  0  0
    1.7120    3.3410    2.0121 H   0  0  0  0  0  0  0  0  0  0  0  0
    2.7165    1.9295    2.2392 H   0  0  0  0  0  0  0  0  0  0  0  0
   -1.8302    2.4805    0.6109 H   0  0  0  0  0  0  0  0  0  0  0  0
   -0.4035    3.4882    0.5634 H   0  0  0  0  0  0  0  0  0  0  0  0
   -0.6125    2.2136   -0.6134 H   0  0  0  0  0  0  0  0  0  0  0  0
   -0.5919   -2.3584    1.7186 H   0  0  0  0  0  0  0  0  0  0  0  0
   -2.2323   -2.5368    1.1439 H   0  0  0  0  0  0  0  0  0  0  0  0
   -1.0140   -1.8369    0.1052 H   0  0  0  0  0  0  0  0  0  0  0  0
   -2.5926    0.5752    3.8625 H   0  0  0  0  0  0  0  0  0  0  0  0
   -3.2284   -1.0147    3.5148 H   0  0  0  0  0  0  0  0  0  0  0  0
   -1.5880   -0.8363    4.0895 H   0  0  0  0  0  0  0  0  0  0  0  0
   -3.3145    1.4672    1.1032 H   0  0  0  0  0  0  0  0  0  0  0  0
   -2.7320    0.5772   -0.2831 H   0  0  0  0  0  0  0  0  0  0  0  0
   -3.9503   -0.1227    0.7556 H   0  0  0  0  0  0  0  0  0  0  0  0
    0.8876   -2.3834    1.8806 H   0  0  0  0  0  0  0  0  0  0  0  0
    1.2238   -2.7808    3.5485 H   0  0  0  0  0  0  0  0  0  0  0  0
   -0.3302   -2.1165    3.1049 H   0  0  0  0  0  0  0  0  0  0  0  0
    3.5365    0.6147    2.9762 H   0  0  0  0  0  0  0  0  0  0  0  0
    3.6638   -1.0574    3.4673 H   0  0  0  0  0  0  0  0  0  0  0  0
    3.3275   -0.6599    1.7993 H   0  0  0  0  0  0  0  0  0  0  0  0
    1.4538    1.0711    5.0701 H   0  0  0  0  0  0  0  0  0  0  0  0
    0.0271    0.0634    5.1176 H   0  0  0  0  0  0  0  0  0  0  0  0
    1.5811   -0.6009    5.5612 H   0  0  0  0  0  0  0  0  0  0  0  0
  1  2  1  0  0  0  0
  1 16  1  0  0  0  0
  1 17  1  0  0  0  0
  1 18  1  0  0  0  0
  2  3  1  0  0  0  0
  2  4  1  0  0  0  0
  2  5  1  0  0  0  0
  2  8  1  0  0  0  0
  2 12  1  0  0  0  0
  3 19  1  0  0  0  0
  3 20  1  0  0  0  0
  3 21  1  0  0  0  0
  4 22  1  0  0  0  0
  4 23  1  0  0  0  0
  4 24  1  0  0  0  0
  5  6  2  0  0  0  0
  6  7  2  0  0  0  0
  8  9  1  0  0  0  0
  8 10  1  0  0  0  0
  8 11  1  0  0  0  0
  9 25  1  0  0  0  0
  9 26  1  0  0  0  0
  9 27  1  0  0  0  0
 10 28  1  0  0  0  0
 10 29  1  0  0  0  0
 10 30  1  0  0  0  0
 11 31  1  0  0  0  0
 11 32  1  0  0  0  0
 11 33  1  0  0  0  0
 12 13  1  0  0  0  0
 12 14  1  0  0  0  0
 12 15  1  0  0  0  0
 13 34  1  0  0  0  0
 13 35  1  0  0  0  0
 13 36  1  0  0  0  0
 14 37  1  0  0  0  0
 14 38  1  0  0  0  0
 14 39  1  0  0  0  0
 15 40  1  0  0  0  0
 15 41  1  0  0  0  0
 15 42  1  0  0  0  0
M  CHG  2   6   1   7  -1
M  END
$$$$
