
  --CCDC--092525    3D                              

 57 64  0  0  0  0  0  0  0  0999 V2000
    3.3866   -1.8346   -3.1829 H      0
    2.5508   -2.3714   -2.7467 C      0
    1.8823   -3.3943   -3.3022 C      0
    2.0813   -3.8363   -4.2729 H      0
    0.8702   -3.7754   -2.4106 N      0
    0.8846   -2.9979   -1.2232 C      0
    1.9437   -2.1051   -1.5148 N      0
    2.2468   -1.0563   -0.5402 C      0
    2.1855   -1.4688    0.4745 H      0
    3.2686   -0.6902   -0.6983 H      0
    1.2988    0.0516   -0.6796 N      0
    1.4921    1.2826   -1.3142 C      0
    2.3967    1.6201   -1.8087 H      0
    0.3347    1.9503   -1.2225 C      0
    0.1247    2.9315   -1.6348 H      0
   -0.5608    1.1377   -0.5157 N      0
    0.0041   -0.0849   -0.0953 C      0
   -0.9725   -1.8640   -0.9268 Fe     0
   -1.0259   -2.6695    1.1196 N      0
   -1.0502   -3.0707    2.1874 C      0
   -1.1075   -3.5602    3.5580 C      0
   -2.1381   -3.6733    3.8875 H      0
   -0.6101   -2.8671    4.2337 H      0
   -0.6154   -4.5267    3.6425 H      0
   -0.7068   -0.9941   -2.9301 N      0
   -0.5690   -0.5431   -3.9690 C      0
   -0.3965    0.0151   -5.3028 C      0
   -1.3616    0.2033   -5.7687 H      0
    0.1608   -0.6682   -5.9400 H      0
    0.1464    0.9568   -5.2582 H      0
   -2.9037   -0.8655   -0.6721 C      0
   -2.7791    0.2545    0.1917 N      0
   -3.4996    0.0815    1.3805 C      0
   -3.5634    0.7897    2.1997 H      0
   -4.1067   -1.1154    1.3168 C      0
   -4.7487   -1.5501    2.0755 H      0
   -3.7693   -1.6944    0.0873 N      0
   -4.1954   -2.9866   -0.4692 C      0
   -4.8838   -3.4598    0.2418 H      0
   -4.7621   -2.7995   -1.3897 H      0
   -3.1131   -3.9334   -0.7724 N      0
   -2.9086   -5.2207   -0.2582 C      0
   -3.5321   -5.7276    0.4710 H      0
   -1.8051   -5.7169   -0.8406 C      0
   -1.3749   -6.6981   -0.6685 H      0
   -1.3172   -4.7412   -1.7197 N      0
   -2.1103   -3.5644   -1.7080 C      0
   -0.1496   -4.8144   -2.6057 C      0
   -0.5007   -4.7610   -3.6438 H      0
    0.3242   -5.7954   -2.4778 H      0
   -1.9755    1.4110   -0.2285 C      0
   -2.0316    2.1782    0.5532 H      0
   -2.4318    1.8380   -1.1302 H      0
    1.1179   -3.6222   -0.3469 H      0
   -0.0742   -0.1138    1.0105 H      0
   -3.3247   -0.6029   -1.6528 H      0
   -2.5278   -3.3208   -2.6951 H      0
  1  2  1
  2  3  2
  3  4  1
  3  5  1
  5  6  1
  6  7  1
  2  7  1
  7  8  1
  8  9  1
  8 10  1
  8 11  1
 11 12  1
 12 13  1
 12 14  2
 14 15  1
 14 16  1
 16 17  1
 11 17  1
 17 18  1
  6 18  1
 18 19  1
 19 20  3
 20 21  1
 21 22  1
 21 23  1
 21 24  1
 18 25  1
 25 26  3
 26 27  1
 27 28  1
 27 29  1
 27 30  1
 18 31  1
 31 32  1
 32 33  1
 33 34  1
 33 35  2
 35 36  1
 35 37  1
 31 37  1
 37 38  1
 38 39  1
 38 40  1
 38 41  1
 41 42  1
 42 43  1
 42 44  2
 44 45  1
 44 46  1
 46 47  1
 41 47  1
 18 47  1
 46 48  1
  5 48  1
 48 49  1
 48 50  1
 32 51  1
 16 51  1
 51 52  1
 51 53  1
  6 54  1
 17 55  1
 31 56  1
 47 57  1
M  END
$$$$
