
  --CCDC--092525    3D                              

 73 79  0  0  0  0  0  0  0  0999 V2000
   -1.3909    0.7838    0.9620 H      0
   -1.0449   -0.1668    0.3540 C      0
   -0.6861   -1.2203    1.1867 C      0
   -0.8838   -2.5320    0.8089 C      0
   -1.4343   -2.8138   -0.4182 C      0
   -1.7199   -1.7862   -1.2970 C      0
   -1.4663   -0.4589   -0.9513 C      0
   -1.5586    0.5616   -1.9169 N      0
   -0.9767    1.6738   -1.5179 C      0
   -0.9486    2.9062   -2.4012 C      0
   -1.1705    2.9679   -3.7771 C      0
   -1.1318    4.1880   -4.4341 C      0
   -0.8932    5.3533   -3.7362 C      0
   -0.6933    5.3132   -2.3668 C      0
   -0.7085    4.0883   -1.6979 C      0
   -0.5987    3.8120    0.0809 P      0
    0.6018    5.0766    0.5866 C      0
    1.6798    5.3632   -0.2454 C      0
    2.6685    6.2515    0.1428 C      0
    2.5926    6.8833    1.3632 C      0
    1.5155    6.6430    2.1859 C      0
    0.5206    5.7601    1.7993 C      0
   -2.2075    4.2568    0.7845 C      0
   -3.1876    3.2900    0.9871 C      0
   -4.4387    3.6476    1.4617 C      0
   -4.7343    4.9689    1.7161 C      0
   -3.7844    5.9398    1.4860 C      0
   -2.5310    5.5905    1.0120 C      0
   -0.2582    1.5183    0.2699 Co     0
    0.8408    2.0535    2.2532 P      0
   -0.3086    2.9404    3.3309 C      0
    2.4264    2.9259    2.1433 C      0
    1.2279    0.6013    3.2619 C      0
    1.8304    1.0757   -0.6367 P      0
    1.5570    0.1271   -2.1527 C      0
    2.8455    0.0082    0.4144 C      0
    2.7700    2.5336   -1.1471 C      0
   -0.2890   -1.0288    2.1708 H      0
   -0.6184   -3.3386    1.4843 H      0
   -1.6290   -3.8425   -0.7031 H      0
   -2.1196   -2.0171   -2.2790 H      0
   -1.3709    2.0589   -4.3345 H      0
   -1.2935    4.2268   -5.5063 H      0
   -0.8678    6.3031   -4.2600 H      0
   -0.5275    6.2323   -1.8145 H      0
    1.7427    4.8924   -1.2191 H      0
    3.5058    6.4508   -0.5178 H      0
    3.3726    7.5717    1.6714 H      0
    1.4420    7.1532    3.1406 H      0
   -0.3409    5.6330    2.4429 H      0
   -2.9754    2.2480    0.7746 H      0
   -5.1904    2.8838    1.6315 H      0
   -5.7140    5.2446    2.0922 H      0
   -4.0199    6.9819    1.6748 H      0
   -1.7949    6.3638    0.8185 H      0
   -1.1016    2.2737    3.6631 H      0
   -0.7806    3.7658    2.8149 H      0
    0.2000    3.3234    4.2131 H      0
    2.3360    3.9463    1.8000 H      0
    3.1177    2.4175    1.4781 H      0
    2.8898    2.9664    3.1268 H      0
    0.3475    0.2703    3.8071 H      0
    1.5929   -0.2313    2.6687 H      0
    1.9893    0.8480    3.9989 H      0
    0.9816   -0.7730   -1.9462 H      0
    2.5051   -0.1716   -2.5949 H      0
    1.0138    0.7164   -2.8883 H      0
    2.3623   -0.9561    0.5564 H      0
    3.0154    0.4422    1.3949 H      0
    3.8155   -0.1683   -0.0458 H      0
    2.2119    3.1022   -1.8870 H      0
    3.7124    2.2353   -1.6016 H      0
    2.9983    3.1865   -0.3110 H      0
  1  2  1
  2  3  4
  3  4  4
  4  5  4
  5  6  4
  6  7  4
  2  7  4
  7  8  1
  8  9  2
  9 10  1
 10 11  4
 11 12  4
 12 13  4
 13 14  4
 14 15  4
 10 15  4
 15 16  1
 16 17  1
 17 18  4
 18 19  4
 19 20  4
 20 21  4
 21 22  4
 17 22  4
 16 23  1
 23 24  4
 24 25  4
 25 26  4
 26 27  4
 27 28  4
 23 28  4
 16 29  1
  1 29  1
  2 29  1
  9 29  1
 29 30  1
 30 31  1
 30 32  1
 30 33  1
 29 34  1
 34 35  1
 34 36  1
 34 37  1
  3 38  1
  4 39  1
  5 40  1
  6 41  1
 11 42  1
 12 43  1
 13 44  1
 14 45  1
 18 46  1
 19 47  1
 20 48  1
 21 49  1
 22 50  1
 24 51  1
 25 52  1
 26 53  1
 27 54  1
 28 55  1
 31 56  1
 31 57  1
 31 58  1
 32 59  1
 32 60  1
 32 61  1
 33 62  1
 33 63  1
 33 64  1
 35 65  1
 35 66  1
 35 67  1
 36 68  1
 36 69  1
 36 70  1
 37 71  1
 37 72  1
 37 73  1
M  END
$$$$
