
     RDKit          3D

 57 60  0  0  0  0  0  0  0  0999 V2000
    3.4689    1.7568    3.4703 C   0  0  0  0  0  0  0  0  0  0  0  0
    3.0476    1.2051    2.2313 O   0  0  0  0  0  0  0  0  0  0  0  0
    3.6196    1.7092    1.0904 C   0  0  0  0  0  0  0  0  0  0  0  0
    4.7134    2.5829    1.0716 C   0  0  0  0  0  0  0  0  0  0  0  0
    5.2346    3.0431   -0.1419 C   0  0  0  0  0  0  0  0  0  0  0  0
    4.6711    2.6341   -1.3473 C   0  0  0  0  0  0  0  0  0  0  0  0
    3.5855    1.7603   -1.3421 C   0  0  0  0  0  0  0  0  0  0  0  0
    3.0599    1.2947   -0.1306 C   0  0  0  0  0  0  0  0  0  0  0  0
    1.9390    0.4031   -0.1744 C   0  0  0  0  0  0  0  0  0  0  0  0
    0.9873   -0.3296   -0.2224 C   0  0  0  0  0  0  0  0  0  0  0  0
   -0.1629   -1.1882   -0.2903 C   0  0  0  0  0  0  0  0  0  0  0  0
   -1.3159   -0.7799   -0.8729 C   0  0  0  0  0  0  0  0  0  0  0  0
   -1.2625    0.5578   -1.4784 N   0  0  0  0  0  0  0  0  0  0  0  0
   -1.4430    1.6590   -0.5484 C   0  0  0  0  0  0  0  0  0  0  0  0
   -0.6759    2.8082   -0.7666 C   0  0  0  0  0  0  0  0  0  0  0  0
   -0.8276    3.9280    0.0527 C   0  0  0  0  0  0  0  0  0  0  0  0
   -1.7703    3.9153    1.0775 C   0  0  0  0  0  0  0  0  0  0  0  0
   -2.5638    2.7876    1.2810 C   0  0  0  0  0  0  0  0  0  0  0  0
   -2.4096    1.6641    0.4651 C   0  0  0  0  0  0  0  0  0  0  0  0
   -2.3967    0.5514   -2.7861 S   0  0  0  0  0  0  0  0  0  0  0  0
   -3.2778    1.6984   -2.7479 O   0  0  0  0  0  0  0  0  0  0  0  0
   -1.7355    0.1123   -3.9979 O   0  0  0  0  0  0  0  0  0  0  0  0
   -3.2927   -0.8245   -2.1875 C   0  0  0  0  0  0  0  0  0  0  0  0
   -4.5583   -1.1873   -2.6283 C   0  0  0  0  0  0  0  0  0  0  0  0
   -5.1768   -2.2553   -1.9899 C   0  0  0  0  0  0  0  0  0  0  0  0
   -4.5338   -2.8983   -0.9255 C   0  0  0  0  0  0  0  0  0  0  0  0
   -3.2608   -2.4882   -0.4955 C   0  0  0  0  0  0  0  0  0  0  0  0
   -2.6061   -1.4523   -1.1494 C   0  0  0  0  0  0  0  0  0  0  0  0
    0.2640   -2.8676    0.4603 Si  0  0  0  0  0  4  0  0  0  0  0  0
   -0.5294   -3.0382    2.1559 C   0  0  0  0  0  0  0  0  0  0  0  0
    2.1405   -3.0457    0.7317 C   0  0  0  0  0  0  0  0  0  0  0  0
   -0.2105   -4.2843   -0.6757 C   0  0  0  0  0  0  0  0  0  0  0  0
    4.5099    1.4919    3.6831 H   0  0  0  0  0  0  0  0  0  0  0  0
    3.3221    2.8419    3.4936 H   0  0  0  0  0  0  0  0  0  0  0  0
    2.8473    1.3205    4.2578 H   0  0  0  0  0  0  0  0  0  0  0  0
    5.1894    2.9216    1.9854 H   0  0  0  0  0  0  0  0  0  0  0  0
    6.0845    3.7213   -0.1436 H   0  0  0  0  0  0  0  0  0  0  0  0
    5.0762    2.9921   -2.2899 H   0  0  0  0  0  0  0  0  0  0  0  0
    3.1478    1.4423   -2.2858 H   0  0  0  0  0  0  0  0  0  0  0  0
    0.0562    2.8257   -1.5691 H   0  0  0  0  0  0  0  0  0  0  0  0
   -0.2135    4.8082   -0.1126 H   0  0  0  0  0  0  0  0  0  0  0  0
   -1.8944    4.7884    1.7131 H   0  0  0  0  0  0  0  0  0  0  0  0
   -3.3101    2.7855    2.0709 H   0  0  0  0  0  0  0  0  0  0  0  0
   -3.0546    0.8084    0.6355 H   0  0  0  0  0  0  0  0  0  0  0  0
   -5.0483   -0.6481   -3.4338 H   0  0  0  0  0  0  0  0  0  0  0  0
   -6.1673   -2.5786   -2.3022 H   0  0  0  0  0  0  0  0  0  0  0  0
   -5.0359   -3.7177   -0.4137 H   0  0  0  0  0  0  0  0  0  0  0  0
   -2.8320   -2.9897    0.3611 H   0  0  0  0  0  0  0  0  0  0  0  0
   -0.0485   -2.3584    2.8665 H   0  0  0  0  0  0  0  0  0  0  0  0
   -0.4085   -4.0591    2.5295 H   0  0  0  0  0  0  0  0  0  0  0  0
   -1.5950   -2.8025    2.1423 H   0  0  0  0  0  0  0  0  0  0  0  0
    2.3639   -4.0401    1.1293 H   0  0  0  0  0  0  0  0  0  0  0  0
    2.5022   -2.3007    1.4457 H   0  0  0  0  0  0  0  0  0  0  0  0
    2.6756   -2.9237   -0.2143 H   0  0  0  0  0  0  0  0  0  0  0  0
   -0.0204   -5.2434   -0.1821 H   0  0  0  0  0  0  0  0  0  0  0  0
    0.3924   -4.2531   -1.5889 H   0  0  0  0  0  0  0  0  0  0  0  0
   -1.2607   -4.2646   -0.9663 H   0  0  0  0  0  0  0  0  0  0  0  0
  1  2  1  0
  2  3  1  0
  3  4  2  0
  4  5  1  0
  5  6  2  0
  6  7  1  0
  7  8  2  0
  8  9  1  0
  9 10  3  0
 10 11  1  0
 11 12  2  3
 12 13  1  0
 13 14  1  0
 14 15  2  0
 15 16  1  0
 16 17  2  0
 17 18  1  0
 18 19  2  0
 13 20  1  0
 20 21  2  0
 20 22  2  0
 20 23  1  0
 23 24  2  0
 24 25  1  0
 25 26  2  0
 26 27  1  0
 27 28  2  0
 11 29  1  0
 29 30  1  0
 29 31  1  0
 29 32  1  0
  8  3  1  0
 28 12  1  0
 19 14  1  0
 28 23  1  0
  1 33  1  0
  1 34  1  0
  1 35  1  0
  4 36  1  0
  5 37  1  0
  6 38  1  0
  7 39  1  0
 15 40  1  0
 16 41  1  0
 17 42  1  0
 18 43  1  0
 19 44  1  0
 24 45  1  0
 25 46  1  0
 26 47  1  0
 27 48  1  0
 30 49  1  0
 30 50  1  0
 30 51  1  0
 31 52  1  0
 31 53  1  0
 31 54  1  0
 32 55  1  0
 32 56  1  0
 32 57  1  0
M  END
