
  --CCDC--092525    3D                              

 53 64  0  0  0  0  0  0  0  0999 V2000
   -1.5813   -0.4295    1.2880 C      0
   -0.2124   -0.5010    0.8027 C      0
    0.8593   -0.4771    0.4134 N      0
    2.8903   -0.3899   -0.2497 Ru     3
    1.8508   -0.2376   -2.6506 Br     0
    4.3103    0.3784   -3.6635 Ru     0
    2.7585   -0.3270   -4.9605 C      0
    1.9303   -0.6938   -5.6524 O      0
    2.8147    1.8858   -3.9723 N      0
    1.9550    2.5898   -4.2419 C      0
    0.8756    3.4447   -4.7229 C      0
    5.8853    1.0874   -4.6965 C      0
    5.8301    1.6261   -3.1247 C      0
    5.7434    0.3020   -2.1296 C      0
    5.9145    0.1196   -0.5399 C      0
    6.3391    1.4094    0.1863 C      0
    7.2790   -0.5223   -0.2419 C      0
    4.8614   -0.7621    0.1963 C      0
    3.9855    0.0536    1.3645 C      0
    3.3809    1.3632    0.5470 C      0
    3.7835    1.1245   -1.0888 C      0
    4.4673   -0.4719   -1.3409 C      0
    4.6144   -1.7343   -2.2524 C      0
    5.4190   -2.8667   -1.6144 C      0
    3.5876   -2.6112   -2.9840 C      0
    5.6150   -1.0399   -3.0681 C      0
    5.7645   -0.5769   -4.6597 C      0
    1.9267   -2.2940   -0.0816 C      0
    1.4139   -3.3074    0.0078 O      0
   -2.0174    0.5350    1.0405 H      0
   -1.6143   -0.5468    2.3680 H      0
   -2.1967   -1.2041    0.8392 H      0
    0.1874    2.8638   -5.3340 H      0
    1.2557    4.2576   -5.3388 H      0
    0.3109    3.8739   -3.8993 H      0
    5.3830    1.6597   -5.4914 H      0
    5.2971    2.5557   -2.8751 H      0
    5.6613    2.2449    0.0529 H      0
    7.3094    1.7357   -0.1779 H      0
    6.4285    1.2314    1.2559 H      0
    7.2243   -1.5321    0.1425 H      0
    7.8035    0.0409    0.5273 H      0
    7.9100   -0.5228   -1.1289 H      0
    3.3939   -0.4852    2.1215 H      0
    2.3952    1.7719    0.8196 H      0
    2.9866    1.5001   -1.7405 H      0
    4.8896   -3.3396   -0.7905 H      0
    6.3825   -2.5157   -1.2802 H      0
    5.6498   -3.6327   -2.3501 H      0
    2.5647   -2.5252   -2.6621 H      0
    3.8392   -3.6611   -2.8596 H      0
    3.6149   -2.3977   -4.0496 H      0
    5.1922   -1.1031   -5.4387 H      0
  1  2  1
  2  3  3
  3  4  1
  4  5  1
  5  6  1
  6  7  1
  7  8  3
  6  9  1
  9 10  3
 10 11  1
  6 12  1
 12 13  1
  6 13  1
 13 14  1
  6 14  1
 14 15  1
 15 16  1
 15 17  1
 15 18  1
  4 18  1
 18 19  1
  4 19  1
 19 20  1
  4 20  1
 20 21  1
  4 21  1
 21 22  1
  4 22  1
 18 22  1
 22 23  1
 23 24  1
 23 25  1
 23 26  1
  6 26  1
 14 26  1
 26 27  1
  6 27  1
 12 27  1
  4 28  1
 28 29  3
  1 30  1
  1 31  1
  1 32  1
 11 33  1
 11 34  1
 11 35  1
 12 36  1
 13 37  1
 16 38  1
 16 39  1
 16 40  1
 17 41  1
 17 42  1
 17 43  1
 19 44  1
 20 45  1
 21 46  1
 24 47  1
 24 48  1
 24 49  1
 25 50  1
 25 51  1
 25 52  1
 27 53  1
M  CHG  1   4   1
M  END
$$$$
