
     RDKit          3D

 32 35  0  0  0  0  0  0  0  0999 V2000
    0.4404    3.8832    0.2683 O   0  0  0  0  0  0  0  0  0  0  0  0
    0.7410    2.6990    0.1492 C   0  0  0  0  0  0  0  0  0  0  0  0
    2.0434    2.3179    0.0287 N   0  0  0  0  0  0  0  0  0  0  0  0
    2.4393    1.0045   -0.2214 C   0  0  0  0  0  0  0  0  0  0  0  0
    3.7901    0.7493   -0.4776 C   0  0  0  0  0  0  0  0  0  0  0  0
    4.1943   -0.5325   -0.8396 C   0  0  0  0  0  0  0  0  0  0  0  0
    3.2462   -1.5429   -0.9657 C   0  0  0  0  0  0  0  0  0  0  0  0
    1.8980   -1.2806   -0.6964 C   0  0  0  0  0  0  0  0  0  0  0  0
    1.4745   -0.0122   -0.2721 C   0  0  0  0  0  0  0  0  0  0  0  0
    0.0541    0.3070    0.0569 C   0  0  0  0  0  0  0  0  0  0  0  0
   -0.2849    1.6159    0.1604 C   0  0  0  0  0  0  0  0  0  0  0  0
   -1.7138    2.0857    0.2886 C   0  0  0  0  0  0  0  0  0  0  0  0
   -2.6764    1.1168   -0.4009 C   0  0  0  0  0  0  0  0  0  0  0  0
   -2.3934   -0.2879    0.0584 C   0  0  0  0  0  0  0  0  0  0  0  0
   -3.4442   -1.1967    0.2471 C   0  0  0  0  0  0  0  0  0  0  0  0
   -3.1862   -2.4678    0.7520 C   0  0  0  0  0  0  0  0  0  0  0  0
   -1.8842   -2.8278    1.0842 C   0  0  0  0  0  0  0  0  0  0  0  0
   -0.8327   -1.9295    0.8776 C   0  0  0  0  0  0  0  0  0  0  0  0
   -1.0587   -0.6648    0.3149 C   0  0  0  0  0  0  0  0  0  0  0  0
    2.7199    3.0684    0.0250 H   0  0  0  0  0  0  0  0  0  0  0  0
    4.5284    1.5442   -0.4211 H   0  0  0  0  0  0  0  0  0  0  0  0
    5.2410   -0.7366   -1.0498 H   0  0  0  0  0  0  0  0  0  0  0  0
    3.5505   -2.5374   -1.2834 H   0  0  0  0  0  0  0  0  0  0  0  0
    1.1868   -2.0871   -0.8511 H   0  0  0  0  0  0  0  0  0  0  0  0
   -1.8530    3.0718   -0.1692 H   0  0  0  0  0  0  0  0  0  0  0  0
   -1.9608    2.1833    1.3535 H   0  0  0  0  0  0  0  0  0  0  0  0
   -3.7064    1.4059   -0.1617 H   0  0  0  0  0  0  0  0  0  0  0  0
   -2.5614    1.1642   -1.4909 H   0  0  0  0  0  0  0  0  0  0  0  0
   -4.4687   -0.9087    0.0231 H   0  0  0  0  0  0  0  0  0  0  0  0
   -4.0028   -3.1673    0.9104 H   0  0  0  0  0  0  0  0  0  0  0  0
   -1.6839   -3.8065    1.5128 H   0  0  0  0  0  0  0  0  0  0  0  0
    0.1636   -2.2311    1.1898 H   0  0  0  0  0  0  0  0  0  0  0  0
  1  2  2  0
  2  3  1  0
  3  4  1  0
  4  5  2  0
  5  6  1  0
  6  7  2  0
  7  8  1  0
  8  9  2  0
  9 10  1  0
 10 11  2  0
 11 12  1  0
 12 13  1  0
 13 14  1  0
 14 15  2  0
 15 16  1  0
 16 17  2  0
 17 18  1  0
 18 19  2  0
 11  2  1  0
 19 14  1  0
  9  4  1  0
 19 10  1  0
  3 20  1  0
  5 21  1  0
  6 22  1  0
  7 23  1  0
  8 24  1  0
 12 25  1  0
 12 26  1  0
 13 27  1  0
 13 28  1  0
 15 29  1  0
 16 30  1  0
 17 31  1  0
 18 32  1  0
M  END
