
     RDKit          3D

 42 41  0  0  0  0  0  0  0  0999 V2000
   -1.4111    2.1690    0.7036 C   0  0  0  0  0  0  0  0  0  0  0  0
   -0.0289    0.8744    0.2262 Pt  0  0  0  0  0  6  0  0  0  0  0  0
    1.2350    2.3329   -0.1643 C   0  0  0  0  0  0  0  0  0  0  0  0
    0.2341    0.5816    2.1089 C   0  0  0  0  0  0  0  0  0  0  0  0
   -0.3153    0.9574   -1.4043 N   0  0  0  0  0  0  0  0  0  0  0  0
   -0.5566    1.4567   -2.4275 N   0  0  0  0  0  4  0  0  0  0  0  0
   -1.3029    2.1199   -3.1445 N   0  0  0  0  0  2  0  0  0  0  0  0
    1.3951   -0.3923   -0.1372 P   0  0  0  0  0  4  0  0  0  0  0  0
    1.3368   -2.0810    0.5969 C   0  0  0  0  0  0  0  0  0  0  0  0
    2.0494   -0.6255   -1.7933 C   0  0  0  0  0  0  0  0  0  0  0  0
    3.0603   -0.0257    0.6974 C   0  0  0  0  0  0  0  0  0  0  0  0
   -1.3316   -0.5557   -0.2050 P   0  0  0  0  0  4  0  0  0  0  0  0
   -3.1204   -0.0822   -0.5348 C   0  0  0  0  0  0  0  0  0  0  0  0
   -1.6827   -1.6021    1.2432 C   0  0  0  0  0  0  0  0  0  0  0  0
   -1.1728   -1.8098   -1.5479 C   0  0  0  0  0  0  0  0  0  0  0  0
   -2.2627    1.7836    1.2689 H   0  0  0  0  0  0  0  0  0  0  0  0
   -1.0893    3.0205    1.3264 H   0  0  0  0  0  0  0  0  0  0  0  0
   -1.8899    2.6730   -0.1171 H   0  0  0  0  0  0  0  0  0  0  0  0
    2.0783    2.2742   -0.7958 H   0  0  0  0  0  0  0  0  0  0  0  0
    0.8291    3.3329   -0.3884 H   0  0  0  0  0  0  0  0  0  0  0  0
    1.7250    2.6097    0.8213 H   0  0  0  0  0  0  0  0  0  0  0  0
   -0.6931    0.4719    2.7578 H   0  0  0  0  0  0  0  0  0  0  0  0
    0.8440    1.2975    2.6353 H   0  0  0  0  0  0  0  0  0  0  0  0
    0.6052   -0.3916    2.4560 H   0  0  0  0  0  0  0  0  0  0  0  0
    1.4561   -2.0764    1.6986 H   0  0  0  0  0  0  0  0  0  0  0  0
    2.1675   -2.6278    0.1758 H   0  0  0  0  0  0  0  0  0  0  0  0
    0.4315   -2.6298    0.3927 H   0  0  0  0  0  0  0  0  0  0  0  0
    2.4380   -1.6156   -1.9085 H   0  0  0  0  0  0  0  0  0  0  0  0
    2.8433    0.1264   -2.0284 H   0  0  0  0  0  0  0  0  0  0  0  0
    1.2414   -0.4976   -2.5670 H   0  0  0  0  0  0  0  0  0  0  0  0
    3.7949   -0.7310    0.3895 H   0  0  0  0  0  0  0  0  0  0  0  0
    2.8786    0.0115    1.7868 H   0  0  0  0  0  0  0  0  0  0  0  0
    3.3519    0.9880    0.3312 H   0  0  0  0  0  0  0  0  0  0  0  0
   -3.5107    0.4985    0.3055 H   0  0  0  0  0  0  0  0  0  0  0  0
   -3.1020    0.5464   -1.4594 H   0  0  0  0  0  0  0  0  0  0  0  0
   -3.6703   -0.9889   -0.6140 H   0  0  0  0  0  0  0  0  0  0  0  0
   -0.8741   -1.5905    2.0038 H   0  0  0  0  0  0  0  0  0  0  0  0
   -1.8850   -2.6334    1.0182 H   0  0  0  0  0  0  0  0  0  0  0  0
   -2.5712   -1.2415    1.8454 H   0  0  0  0  0  0  0  0  0  0  0  0
   -1.4393   -1.2238   -2.4901 H   0  0  0  0  0  0  0  0  0  0  0  0
   -0.1741   -2.1575   -1.7310 H   0  0  0  0  0  0  0  0  0  0  0  0
   -1.9116   -2.5468   -1.3310 H   0  0  0  0  0  0  0  0  0  0  0  0
  1  2  1  0
  2  3  1  0
  2  4  1  0
  2  5  1  0
  5  6  2  0
  6  7  2  0
  2  8  1  0
  8  9  1  0
  8 10  1  0
  8 11  1  0
  2 12  1  0
 12 13  1  0
 12 14  1  0
 12 15  1  0
  1 16  1  0
  1 17  1  0
  1 18  1  0
  3 19  1  0
  3 20  1  0
  3 21  1  0
  4 22  1  0
  4 23  1  0
  4 24  1  0
  9 25  1  0
  9 26  1  0
  9 27  1  0
 10 28  1  0
 10 29  1  0
 10 30  1  0
 11 31  1  0
 11 32  1  0
 11 33  1  0
 13 34  1  0
 13 35  1  0
 13 36  1  0
 14 37  1  0
 14 38  1  0
 14 39  1  0
 15 40  1  0
 15 41  1  0
 15 42  1  0
M  CHG  2   6   1   7  -1
M  RAD  2   8   2  12   2
M  END
