
  --CCDC--092525    3D                              

 34 33  0  0  0  0  0  0  0  0999 V2000
   -0.0021    0.0007    0.0037 Br     0
    1.6398    2.8401   -0.0001 La     0
    3.3930    4.8647   -1.8935 Br     0
    3.6068    1.1185    1.9810 Br     0
    0.1418    2.6804   -2.3007 N      0
   -0.4811    2.6107   -3.2540 C      0
   -1.2581    2.4915   -4.4799 C      0
    3.3649    1.3465   -1.5350 N      0
    4.0808    0.7267   -2.1720 C      0
    4.9813   -0.0940   -2.9699 C      0
    3.0253    4.5855    1.6114 N      0
    3.6011    5.3106    2.2781 C      0
    4.3200    6.2624    3.1137 C      0
   -0.0982    4.9698   -0.0778 N      0
   -0.8193    5.8534   -0.1100 C      0
   -1.7255    6.9911   -0.1810 C      0
    0.0250    2.7457    2.2238 N      0
   -0.6453    2.7056    3.1461 C      0
   -1.4845    2.6257    4.3335 C      0
   -1.4194    1.4458   -4.7338 H      0
   -0.7424    2.9667   -5.3117 H      0
   -2.2305    2.9666   -4.3678 H      0
    4.8079    0.0648   -4.0323 H      0
    4.8314   -1.1502   -2.7561 H      0
    6.0194    0.1515   -2.7554 H      0
    3.6258    6.8920    3.6663 H      0
    4.9530    6.9069    2.5073 H      0
    4.9528    5.7445    3.8314 H      0
   -1.9348    7.2536   -1.2159 H      0
   -2.6701    6.7629    0.3082 H      0
   -1.2921    7.8608    0.3082 H      0
   -1.6746    1.5888    4.6021 H      0
   -2.4424    3.1123    4.1623 H      0
   -1.0037    3.1124    5.1794 H      0
  1  2  1
  2  3  1
  2  4  1
  2  5  1
  5  6  3
  6  7  1
  2  8  1
  8  9  3
  9 10  1
  2 11  1
 11 12  3
 12 13  1
  2 14  1
 14 15  3
 15 16  1
  2 17  1
 17 18  3
 18 19  1
  7 20  1
  7 21  1
  7 22  1
 10 23  1
 10 24  1
 10 25  1
 13 26  1
 13 27  1
 13 28  1
 16 29  1
 16 30  1
 16 31  1
 19 32  1
 19 33  1
 19 34  1
M  END
$$$$
