
 OpenBabel09252519393D

 62 63  0  0  0  0  0  0  0  0999 V2000
    1.0507    0.0290   -0.0812 C   0  0  0  0  0  0  0  0  0  0  0  0
    0.3440   -1.9158   -0.5423 Pt  0  0  0  0  0  0  0  0  0  0  0  0
    2.0750   -2.7558    0.3479 C   0  0  0  0  0  0  0  0  0  0  0  0
   -0.6553   -1.9956    1.3256 C   0  0  0  0  0  0  0  0  0  0  0  0
   -0.3460   -3.8147   -0.9926 N   0  0  0  0  0  0  0  0  0  0  0  0
    0.4817   -5.1713   -1.6787 N   0  0  0  0  0  0  0  0  0  0  0  0
   -0.8542   -6.3377   -1.6957 C   0  0  0  0  0  0  0  0  0  0  0  0
   -0.7691   -7.7719   -2.1384 C   0  0  0  0  0  0  0  0  0  0  0  0
   -0.6917   -8.6363   -0.8666 C   0  0  0  0  0  0  0  0  0  0  0  0
   -1.8802   -8.2751    0.0311 C   0  0  0  0  0  0  0  0  0  0  0  0
   -3.1167   -8.6282   -0.7686 C   0  0  0  0  0  0  0  0  0  0  0  0
   -3.5379   -7.5553   -1.7557 C   0  0  0  0  0  0  0  0  0  0  0  0
   -3.3734   -6.1538   -1.1834 C   0  0  0  0  0  0  0  0  0  0  0  0
   -1.9260   -5.6679   -1.2339 C   0  0  0  0  0  0  0  0  0  0  0  0
   -1.6309   -4.2924   -0.8149 N   0  0  0  0  0  0  0  0  0  0  0  0
   -1.6400   -0.9529   -1.5627 P   0  0  0  0  0  4  0  0  0  0  0  0
   -1.2334    0.6920   -2.2539 C   0  0  0  0  0  0  0  0  0  0  0  0
   -2.2295   -2.0494   -2.9040 C   0  0  0  0  0  0  0  0  0  0  0  0
   -2.9514   -0.7761   -0.2986 C   0  0  0  0  0  0  0  0  0  0  0  0
    1.4896   -1.8243   -2.6834 P   0  0  0  0  0  4  0  0  0  0  0  0
    0.8447   -0.4179   -3.6607 C   0  0  0  0  0  0  0  0  0  0  0  0
    3.2847   -1.6020   -2.4058 C   0  0  0  0  0  0  0  0  0  0  0  0
    1.2020   -3.3841   -3.5962 C   0  0  0  0  0  0  0  0  0  0  0  0
    0.6940    0.3182    0.8853 H   0  0  0  0  0  0  0  0  0  0  0  0
    0.6940    0.7214   -0.8148 H   0  0  0  0  0  0  0  0  0  0  0  0
    2.1207    0.0290   -0.0812 H   0  0  0  0  0  0  0  0  0  0  0  0
    2.4197   -2.1147    1.1321 H   0  0  0  0  0  0  0  0  0  0  0  0
    1.8372   -3.7176    0.7520 H   0  0  0  0  0  0  0  0  0  0  0  0
    2.8418   -2.8592   -0.3912 H   0  0  0  0  0  0  0  0  0  0  0  0
   -1.7049   -2.1256    1.1633 H   0  0  0  0  0  0  0  0  0  0  0  0
   -0.2783   -2.8179    1.8970 H   0  0  0  0  0  0  0  0  0  0  0  0
   -0.4872   -1.0836    1.8593 H   0  0  0  0  0  0  0  0  0  0  0  0
   -1.6209   -8.0388   -2.7283 H   0  0  0  0  0  0  0  0  0  0  0  0
    0.1060   -7.9198   -2.7362 H   0  0  0  0  0  0  0  0  0  0  0  0
    0.2287   -8.4549   -0.3520 H   0  0  0  0  0  0  0  0  0  0  0  0
   -0.7382   -9.6724   -1.1296 H   0  0  0  0  0  0  0  0  0  0  0  0
   -1.8687   -7.2412    0.3064 H   0  0  0  0  0  0  0  0  0  0  0  0
   -1.8482   -8.8409    0.9387 H   0  0  0  0  0  0  0  0  0  0  0  0
   -2.8777   -9.5002   -1.3409 H   0  0  0  0  0  0  0  0  0  0  0  0
   -3.9237   -8.7934   -0.0857 H   0  0  0  0  0  0  0  0  0  0  0  0
   -2.9088   -7.6352   -2.6175 H   0  0  0  0  0  0  0  0  0  0  0  0
   -4.5663   -7.7054   -2.0103 H   0  0  0  0  0  0  0  0  0  0  0  0
   -3.9611   -5.4878   -1.7800 H   0  0  0  0  0  0  0  0  0  0  0  0
   -3.6983   -6.1590   -0.1639 H   0  0  0  0  0  0  0  0  0  0  0  0
   -0.4666    0.5887   -2.9930 H   0  0  0  0  0  0  0  0  0  0  0  0
   -2.1070    1.1160   -2.7032 H   0  0  0  0  0  0  0  0  0  0  0  0
   -0.8887    1.3332   -1.4697 H   0  0  0  0  0  0  0  0  0  0  0  0
   -2.4673   -3.0112   -2.4998 H   0  0  0  0  0  0  0  0  0  0  0  0
   -3.1032   -1.6254   -3.3533 H   0  0  0  0  0  0  0  0  0  0  0  0
   -1.4627   -2.1528   -3.6431 H   0  0  0  0  0  0  0  0  0  0  0  0
   -3.1892   -1.7379    0.1055 H   0  0  0  0  0  0  0  0  0  0  0  0
   -2.6068   -0.1350    0.4856 H   0  0  0  0  0  0  0  0  0  0  0  0
   -3.8251   -0.3521   -0.7479 H   0  0  0  0  0  0  0  0  0  0  0  0
    1.0128    0.4942   -3.1270 H   0  0  0  0  0  0  0  0  0  0  0  0
    1.3491   -0.3776   -4.6035 H   0  0  0  0  0  0  0  0  0  0  0  0
   -0.2049   -0.5478   -3.8230 H   0  0  0  0  0  0  0  0  0  0  0  0
    3.6617   -2.4244   -1.8345 H   0  0  0  0  0  0  0  0  0  0  0  0
    3.7891   -1.5617   -3.3486 H   0  0  0  0  0  0  0  0  0  0  0  0
    3.4528   -0.6900   -1.8721 H   0  0  0  0  0  0  0  0  0  0  0  0
    1.5790   -4.2064   -3.0248 H   0  0  0  0  0  0  0  0  0  0  0  0
    0.1524   -3.5141   -3.7585 H   0  0  0  0  0  0  0  0  0  0  0  0
    1.7064   -3.3438   -4.5390 H   0  0  0  0  0  0  0  0  0  0  0  0
  1  2  1  0  0  0  0
  1 24  1  0  0  0  0
  1 25  1  0  0  0  0
  1 26  1  0  0  0  0
  2  3  1  0  0  0  0
  2  4  1  0  0  0  0
  2  5  1  0  0  0  0
  2 16  1  0  0  0  0
  2 20  1  0  0  0  0
  3 27  1  0  0  0  0
  3 28  1  0  0  0  0
  3 29  1  0  0  0  0
  4 30  1  0  0  0  0
  4 31  1  0  0  0  0
  4 32  1  0  0  0  0
  5  6  1  0  0  0  0
  5 15  1  0  0  0  0
  6  7  2  0  0  0  0
  7  8  1  0  0  0  0
  7 14  1  0  0  0  0
  8  9  1  0  0  0  0
  8 33  1  0  0  0  0
  8 34  1  0  0  0  0
  9 10  1  0  0  0  0
  9 35  1  0  0  0  0
  9 36  1  0  0  0  0
 10 11  1  0  0  0  0
 10 37  1  0  0  0  0
 10 38  1  0  0  0  0
 11 12  1  0  0  0  0
 11 39  1  0  0  0  0
 11 40  1  0  0  0  0
 12 13  1  0  0  0  0
 12 41  1  0  0  0  0
 12 42  1  0  0  0  0
 13 14  1  0  0  0  0
 13 43  1  0  0  0  0
 13 44  1  0  0  0  0
 14 15  2  0  0  0  0
 16 17  1  0  0  0  0
 16 18  1  0  0  0  0
 16 19  1  0  0  0  0
 17 45  1  0  0  0  0
 17 46  1  0  0  0  0
 17 47  1  0  0  0  0
 18 48  1  0  0  0  0
 18 49  1  0  0  0  0
 18 50  1  0  0  0  0
 19 51  1  0  0  0  0
 19 52  1  0  0  0  0
 19 53  1  0  0  0  0
 20 21  1  0  0  0  0
 20 22  1  0  0  0  0
 20 23  1  0  0  0  0
 21 54  1  0  0  0  0
 21 55  1  0  0  0  0
 21 56  1  0  0  0  0
 22 57  1  0  0  0  0
 22 58  1  0  0  0  0
 22 59  1  0  0  0  0
 23 60  1  0  0  0  0
 23 61  1  0  0  0  0
 23 62  1  0  0  0  0
M  END
$$$$
