
 OpenBabel09252519053D

 26 26  0  0  0  0  0  0  0  0999 V2000
    0.9179   -0.0329   -0.2271 C   0  0  0  0  0  0  0  0  0  0  0  0
    0.3042   -1.4233   -0.0922 C   0  0  0  0  0  0  0  0  0  0  0  0
    0.9574   -2.2636    0.9983 C   0  0  0  0  0  0  0  0  0  0  0  0
   -1.1332   -1.3953    0.0575 O   0  0  0  0  0  0  0  0  0  0  0  0
   -1.6849   -0.7347    1.1009 C   0  0  0  0  0  0  0  0  0  0  0  0
   -1.1052   -0.0970    1.9643 O   0  0  0  0  0  0  0  0  0  0  0  0
   -3.1629   -0.8472    1.0377 C   0  0  0  0  0  0  0  0  0  0  0  0
   -3.9322    0.1825    1.5985 C   0  0  0  0  0  0  0  0  0  0  0  0
   -5.3285    0.1094    1.5808 C   0  0  0  0  0  0  0  0  0  0  0  0
   -5.9539   -1.0080    1.0112 C   0  0  0  0  0  0  0  0  0  0  0  0
   -5.1919   -2.0458    0.4553 C   0  0  0  0  0  0  0  0  0  0  0  0
   -3.7956   -1.9617    0.4677 C   0  0  0  0  0  0  0  0  0  0  0  0
   -7.4201   -1.0960    1.0031 N   0  0  0  0  0  0  0  0  0  0  0  0
   -8.0576   -0.1343    1.4550 O   0  0  0  0  0  0  0  0  0  0  0  0
   -7.9322   -2.1272    0.5448 O   0  0  0  0  0  0  0  0  0  0  0  0
    0.9050    0.5175    0.7182 H   0  0  0  0  0  0  0  0  0  0  0  0
    0.3625    0.5647   -0.9572 H   0  0  0  0  0  0  0  0  0  0  0  0
    1.9616   -0.1012   -0.5505 H   0  0  0  0  0  0  0  0  0  0  0  0
    0.4713   -1.9391   -1.0456 H   0  0  0  0  0  0  0  0  0  0  0  0
    0.8395   -1.8109    1.9873 H   0  0  0  0  0  0  0  0  0  0  0  0
    0.4911   -3.2537    1.0445 H   0  0  0  0  0  0  0  0  0  0  0  0
    2.0274   -2.3907    0.8067 H   0  0  0  0  0  0  0  0  0  0  0  0
   -3.4438    1.0458    2.0488 H   0  0  0  0  0  0  0  0  0  0  0  0
   -5.9067    0.9225    2.0167 H   0  0  0  0  0  0  0  0  0  0  0  0
   -5.6660   -2.9223    0.0161 H   0  0  0  0  0  0  0  0  0  0  0  0
   -3.2095   -2.7752    0.0446 H   0  0  0  0  0  0  0  0  0  0  0  0
  1  2  1  0  0  0  0
  1 16  1  0  0  0  0
  1 17  1  0  0  0  0
  1 18  1  0  0  0  0
  2  3  1  0  0  0  0
  2  4  1  0  0  0  0
  2 19  1  0  0  0  0
  3 20  1  0  0  0  0
  3 21  1  0  0  0  0
  3 22  1  0  0  0  0
  4  5  1  0  0  0  0
  5  6  2  0  0  0  0
  5  7  1  0  0  0  0
  7  8  1  0  0  0  0
  7 12  2  0  0  0  0
  8  9  2  0  0  0  0
  8 23  1  0  0  0  0
  9 10  1  0  0  0  0
  9 24  1  0  0  0  0
 10 11  2  0  0  0  0
 10 13  1  0  0  0  0
 11 12  1  0  0  0  0
 11 25  1  0  0  0  0
 12 26  1  0  0  0  0
 13 14  2  0  0  0  0
 13 15  2  0  0  0  0
M  END
$$$$
