
 OpenBabel09252515353D

 29 30  0  0  0  0  0  0  0  0999 V2000
    1.0490   -0.0466   -0.0737 H   0  0  0  0  0  0  0  0  0  0  0  0
    2.1190   -0.0466   -0.0737 C   0  0  0  0  0  0  0  0  0  0  0  0
    2.3934   -0.0969   -1.1067 H   0  0  0  0  0  0  0  0  0  0  0  0
    2.6551    1.1344    0.6279 N   0  0  0  0  0  0  0  0  0  0  0  0
    1.9649    2.4178    0.8209 C   0  0  0  0  0  0  0  0  0  0  0  0
    2.8254    3.8265    1.7566 Au  0  0  0  0  0  0  0  0  0  0  0  0
    3.9048    5.5933    2.9303 Cl  0  0  0  0  0  0  0  0  0  0  0  0
    0.6081    2.6100    0.2890 N   0  0  0  0  0  0  0  0  0  0  0  0
   -0.5867    1.8226    0.6452 C   0  0  0  0  0  0  0  0  0  0  0  0
   -1.1683    2.2527    1.4337 H   0  0  0  0  0  0  0  0  0  0  0  0
   -0.3196    0.8494    1.0007 H   0  0  0  0  0  0  0  0  0  0  0  0
   -1.3110    1.7444   -0.6702 C   0  0  0  0  0  0  0  0  0  0  0  0
   -0.9070    1.0061   -1.3310 H   0  0  0  0  0  0  0  0  0  0  0  0
   -2.3358    1.4708   -0.5294 H   0  0  0  0  0  0  0  0  0  0  0  0
   -1.1898    3.1964   -1.2235 C   0  0  0  0  0  0  0  0  0  0  0  0
   -1.2847    3.2481   -2.2880 H   0  0  0  0  0  0  0  0  0  0  0  0
   -1.9664    3.8210   -0.8340 H   0  0  0  0  0  0  0  0  0  0  0  0
    0.1832    3.6511   -0.7216 C   0  0  0  0  0  0  0  0  0  0  0  0
    0.8889    3.7400   -1.5210 H   0  0  0  0  0  0  0  0  0  0  0  0
    0.1127    4.6138   -0.2599 H   0  0  0  0  0  0  0  0  0  0  0  0
    4.0439    0.7849    1.1126 C   0  0  0  0  0  0  0  0  0  0  0  0
    4.2143    1.1285    2.1115 H   0  0  0  0  0  0  0  0  0  0  0  0
    4.7837    1.2481    0.4936 H   0  0  0  0  0  0  0  0  0  0  0  0
    4.1399   -0.7397    1.0118 C   0  0  0  0  0  0  0  0  0  0  0  0
    4.5643   -1.1911    1.8841 H   0  0  0  0  0  0  0  0  0  0  0  0
    4.7725   -1.0310    0.1995 H   0  0  0  0  0  0  0  0  0  0  0  0
    2.6657   -1.1756    0.7554 C   0  0  0  0  0  0  0  0  0  0  0  0
    2.1129   -1.3438    1.6560 H   0  0  0  0  0  0  0  0  0  0  0  0
    2.6258   -2.1008    0.2194 H   0  0  0  0  0  0  0  0  0  0  0  0
  1  2  1  0  0  0  0
  2  3  1  0  0  0  0
  2  4  1  0  0  0  0
  2 27  1  0  0  0  0
  4  5  1  0  0  0  0
  4 21  1  0  0  0  0
  5  6  2  0  0  0  0
  5  8  1  0  0  0  0
  6  7  1  0  0  0  0
  8  9  1  0  0  0  0
  8 18  1  0  0  0  0
  9 10  1  0  0  0  0
  9 11  1  0  0  0  0
  9 12  1  0  0  0  0
 12 13  1  0  0  0  0
 12 14  1  0  0  0  0
 12 15  1  0  0  0  0
 15 16  1  0  0  0  0
 15 17  1  0  0  0  0
 15 18  1  0  0  0  0
 18 19  1  0  0  0  0
 18 20  1  0  0  0  0
 21 22  1  0  0  0  0
 21 23  1  0  0  0  0
 21 24  1  0  0  0  0
 24 25  1  0  0  0  0
 24 26  1  0  0  0  0
 24 27  1  0  0  0  0
 27 28  1  0  0  0  0
 27 29  1  0  0  0  0
M  END
$$$$
