
  --CCDC--092525    3D                              

 68 74  0  0  0  0  0  0  0  0999 V2000
    2.9931   -0.5550   -0.9517 C      0
    2.7418    1.1337   -0.4714 S      0
    4.3167    1.7830   -0.9650 C      0
    2.8047    1.1113    0.9612 O      0
    0.8072    2.4714    2.0289 U      3
    2.6888    2.3078    3.8692 O      0
    2.1961    1.7841    5.0865 C      0
    2.9338    1.4999    6.0141 O      0
    0.6827    1.6360    5.2602 C      0
   -0.0157    2.6281    4.5051 N      0
    0.3758    3.9141    5.0205 C      0
   -0.1010    5.0961    4.2041 C      0
    0.0649    4.8728    2.8079 N      0
    0.7006    5.8095    1.9640 C      0
    0.0083    5.5417    0.6290 C      0
    0.0634    4.1732    0.1814 N      0
   -1.2350    3.6910   -0.2080 C      0
   -2.2058    3.4259    0.9583 C      0
   -1.7962    2.4729    1.9666 N      0
   -2.2203    2.8891    3.2815 C      0
   -1.4130    2.2786    4.4354 C      0
   -2.1460    1.1161    1.6941 C      0
   -1.5201    0.6214    0.3882 C      0
   -2.1877   -0.0548   -0.3751 O      0
   -0.1605    0.9168    0.1343 O      0
    1.0346    4.0288   -0.8476 C      0
    2.4085    4.3961   -0.2867 C      0
    3.1602    5.0935   -0.9456 O      0
    2.7791    3.8660    0.9704 O      0
    0.5907   -0.0360    2.8275 O      0
    1.0802   -0.9209    1.8102 S      0
    2.6332   -1.4974    2.4439 C      0
    0.1371   -2.4060    2.0345 C      0
    2.1211   -0.9426   -1.4740 H      0
    3.1727   -1.1812   -0.0802 H      0
    3.8513   -0.6432   -1.6147 H      0
    4.2692    2.1829   -1.9758 H      0
    5.0776    1.0057   -0.9438 H      0
    4.6315    2.5830   -0.2984 H      0
    0.3509    0.6252    5.0049 H      0
    0.4330    1.7607    6.3211 H      0
    0.0316    4.0196    6.0567 H      0
    1.4652    4.0124    5.0617 H      0
   -1.1646    5.2698    4.4083 H      0
    0.4219    6.0089    4.5150 H      0
   -0.9077    4.9724    2.4806 H      0
    0.4993    6.8354    2.2963 H      0
    1.7873    5.6894    1.9377 H      0
   -1.0456    5.8333    0.7172 H      0
    0.4290    6.1968   -0.1439 H      0
   -1.6902    4.4365   -0.8716 H      0
   -1.1285    2.8000   -0.8333 H      0
   -2.4301    4.3819    1.4445 H      0
   -3.1669    3.0956    0.5454 H      0
   -2.2430    3.9776    3.3736 H      0
   -3.2681    2.5874    3.4019 H      0
   -1.4901    1.1869    4.3596 H      0
   -1.8899    2.5408    5.3879 H      0
   -1.8168    0.4772    2.5229 H      0
   -3.2374    1.0185    1.6429 H      0
    1.0315    3.0029   -1.2332 H      0
    0.7860    4.6822   -1.6930 H      0
    2.5117   -1.9152    3.4411 H      0
    3.3520   -0.6828    2.5029 H      0
    3.0491   -2.2704    1.8010 H      0
    0.2053   -2.7544    3.0630 H      0
    0.5030   -3.1973    1.3836 H      0
   -0.9122   -2.2351    1.8034 H      0
  1  2  1
  2  3  1
  2  4  2
  4  5  1
  5  6  1
  6  7  1
  7  8  2
  7  9  1
  9 10  1
  5 10  1
 10 11  1
 11 12  1
 12 13  1
  5 13  1
 13 14  1
 14 15  1
 15 16  1
  5 16  1
 16 17  1
 17 18  1
 18 19  1
  5 19  1
 19 20  1
 20 21  1
 10 21  1
 19 22  1
 22 23  1
 23 24  2
 23 25  1
  5 25  1
 16 26  1
 26 27  1
 27 28  2
 27 29  1
  5 29  1
  5 30  1
 30 31  2
 31 32  1
 31 33  1
  1 34  1
  1 35  1
  1 36  1
  3 37  1
  3 38  1
  3 39  1
  9 40  1
  9 41  1
 11 42  1
 11 43  1
 12 44  1
 12 45  1
 13 46  1
 14 47  1
 14 48  1
 15 49  1
 15 50  1
 17 51  1
 17 52  1
 18 53  1
 18 54  1
 20 55  1
 20 56  1
 21 57  1
 21 58  1
 22 59  1
 22 60  1
 26 61  1
 26 62  1
 32 63  1
 32 64  1
 32 65  1
 33 66  1
 33 67  1
 33 68  1
M  CHG  1   5   1
M  END
$$$$
