
  --CCDC--092525    3D                              

 57 64  0  0  0  0  0  0  0  0999 V2000
    0.6425    2.2507   -3.1382 C      0
    1.8633    1.6185   -2.6581 C      0
    2.8048    1.1017   -2.2712 N      0
    4.6095    0.1070   -1.4993 Fe     1
    2.9592   -1.1397   -0.7491 N      0
    2.1034   -1.7863   -0.3601 C      0
    1.0250   -2.6399    0.1188 C      0
    5.6174   -1.5860   -0.4663 C      0
    5.9918   -1.3550    0.8744 N      0
    5.0423   -0.6623    1.7222 C      0
    5.5191    0.6696    1.4302 N      0
    6.5876    1.2947    2.0741 C      0
    6.8618    2.3868    1.3629 C      0
    5.9644    2.4149    0.2898 N      0
    5.9709    3.4584   -0.7230 C      0
    5.3459    3.0987   -1.9831 N      0
    4.5583    3.9645   -2.7487 C      0
    4.2209    3.3035   -3.8548 C      0
    4.7968    2.0362   -3.7426 N      0
    4.7039    0.9560   -4.7117 C      0
    5.7187   -0.0056   -4.3317 N      0
    7.0130   -0.1134   -4.8470 C      0
    7.6104   -1.0867   -4.1576 C      0
    6.6739   -1.5516   -3.2287 N      0
    6.8682   -2.6435   -2.2942 C      0
    6.8343   -2.1376   -0.9340 N      0
    7.8258   -2.2376    0.0485 C      0
    7.3030   -1.7392    1.1757 C      0
    5.3987   -0.9247   -3.3003 C      0
    5.5538    1.8090   -2.5501 C      0
    5.0039    1.3578    0.3011 C      0
    0.8652    2.9793   -3.9150 H      0
    0.1301    2.7652   -2.3279 H      0
   -0.0379    1.5101   -3.5533 H      0
    0.1035   -2.0720    0.2290 H      0
    1.2750   -3.0712    1.0859 H      0
    0.8397   -3.4547   -0.5779 H      0
    4.0048   -0.8121    1.4020 H      0
    5.1702   -0.9219    2.7803 H      0
    7.1247    0.9354    2.9456 H      0
    7.6518    3.1035    1.5613 H      0
    5.4621    4.3423   -0.3190 H      0
    7.0110    3.7464   -0.9197 H      0
    4.2885    4.9851   -2.4980 H      0
    3.6176    3.6743   -4.6768 H      0
    3.7085    0.4961   -4.6801 H      0
    4.8923    1.3325   -5.7248 H      0
    7.4501    0.4854   -5.6392 H      0
    8.6260   -1.4449   -4.2890 H      0
    6.0703   -3.3843   -2.4284 H      0
    7.8292   -3.1361   -2.4869 H      0
    8.8222   -2.6482   -0.0765 H      0
    7.8031   -1.6414    2.1336 H      0
    4.8903   -2.4128   -0.4630 H      0
    4.6538   -1.6481   -3.6664 H      0
    6.6186    1.6274   -2.7636 H      0
    4.0400    1.7997    0.5975 H      0
  1  2  1
  2  3  3
  3  4  1
  4  5  1
  5  6  3
  6  7  1
  4  8  1
  8  9  1
  9 10  1
 10 11  1
 11 12  1
 12 13  2
 13 14  1
 14 15  1
 15 16  1
 16 17  1
 17 18  2
 18 19  1
 19 20  1
 20 21  1
 21 22  1
 22 23  2
 23 24  1
 24 25  1
 25 26  1
  8 26  1
 26 27  1
 27 28  2
  9 28  1
 24 29  1
  4 29  1
 21 29  1
 19 30  1
  4 30  1
 16 30  1
 14 31  1
  4 31  1
 11 31  1
  1 32  1
  1 33  1
  1 34  1
  7 35  1
  7 36  1
  7 37  1
 10 38  1
 10 39  1
 12 40  1
 13 41  1
 15 42  1
 15 43  1
 17 44  1
 18 45  1
 20 46  1
 20 47  1
 22 48  1
 23 49  1
 25 50  1
 25 51  1
 27 52  1
 28 53  1
  8 54  1
 29 55  1
 30 56  1
 31 57  1
M  CHG  1   4   3
M  END
$$$$
