
     RDKit          3D

 64 65  0  0  0  0  0  0  0  0999 V2000
    3.4881    0.1229    1.6649 C   0  0  0  0  0  0  0  0  0  0  0  0
    2.2241    0.1461    0.8576 C   0  0  0  0  0  0  0  0  0  0  0  0
    0.9857    0.0479    1.3998 N   0  0  0  0  0  0  0  0  0  0  0  0
    0.1060    0.1082    0.3817 N   0  0  0  0  0  0  0  0  0  0  0  0
   -1.7056    0.0262    0.5643 Pt  0  0  0  0  0  6  0  0  0  0  0  0
   -1.4751    1.4196    1.8634 C   0  0  0  0  0  0  0  0  0  0  0  0
   -1.3754   -1.1178    2.0457 C   0  0  0  0  0  0  0  0  0  0  0  0
   -3.5343   -0.1364    1.0668 C   0  0  0  0  0  0  0  0  0  0  0  0
   -2.0863    1.4723   -0.6641 P   0  0  0  0  0  5  0  0  0  0  0  0
   -3.3402    2.5352    0.2029 C   0  0  0  0  0  0  0  0  0  0  0  0
   -0.8168    2.7483   -0.7196 C   0  0  0  0  0  0  0  0  0  0  0  0
   -3.0876    1.1789   -1.9971 C   0  0  0  0  0  0  0  0  0  0  0  0
   -1.9128   -1.4437   -0.6382 P   0  0  0  0  0  5  0  0  0  0  0  0
   -1.8762   -2.9804    0.3782 C   0  0  0  0  0  0  0  0  0  0  0  0
   -3.5461   -1.8087   -1.1272 C   0  0  0  0  0  0  0  0  0  0  0  0
   -0.4816   -1.9164   -1.4966 C   0  0  0  0  0  0  0  0  0  0  0  0
    0.7364    0.2375   -0.7506 N   0  0  0  0  0  0  0  0  0  0  0  0
    2.0235    0.2686   -0.5507 C   0  0  0  0  0  0  0  0  0  0  0  0
    2.9963    0.4121   -1.7451 C   0  0  0  0  0  0  0  0  0  0  0  0
    4.2857    0.2657   -1.1476 C   0  0  0  0  0  0  0  0  0  0  0  0
    5.6353    0.0781   -0.9915 C   0  0  0  0  0  0  0  0  0  0  0  0
    5.8283   -0.1039    0.5463 C   0  0  0  0  0  0  0  0  0  0  0  0
    4.6268   -0.6868    1.2499 C   0  0  0  0  0  0  0  0  0  0  0  0
    3.8355    1.1328    1.9360 H   0  0  0  0  0  0  0  0  0  0  0  0
    3.1022   -0.2520    2.6647 H   0  0  0  0  0  0  0  0  0  0  0  0
   -0.7100    1.0663    2.6309 H   0  0  0  0  0  0  0  0  0  0  0  0
   -0.9682    2.2872    1.4354 H   0  0  0  0  0  0  0  0  0  0  0  0
   -2.3670    1.5658    2.4565 H   0  0  0  0  0  0  0  0  0  0  0  0
   -0.3489   -1.5523    2.0071 H   0  0  0  0  0  0  0  0  0  0  0  0
   -1.2818   -0.5365    3.0225 H   0  0  0  0  0  0  0  0  0  0  0  0
   -2.1888   -1.7728    2.2877 H   0  0  0  0  0  0  0  0  0  0  0  0
   -3.8121    0.5507    1.8588 H   0  0  0  0  0  0  0  0  0  0  0  0
   -4.1435   -0.1524    0.1600 H   0  0  0  0  0  0  0  0  0  0  0  0
   -3.7029   -1.1629    1.5120 H   0  0  0  0  0  0  0  0  0  0  0  0
   -1.2376    0.8576   -1.4519 H   0  0  0  0  0  0  0  0  0  0  0  0
   -2.8087    2.9098    1.0422 H   0  0  0  0  0  0  0  0  0  0  0  0
   -3.4944    3.3855   -0.4998 H   0  0  0  0  0  0  0  0  0  0  0  0
   -4.1602    1.8687    0.3515 H   0  0  0  0  0  0  0  0  0  0  0  0
   -0.6694    3.2231   -1.7110 H   0  0  0  0  0  0  0  0  0  0  0  0
    0.1711    2.4708   -0.2618 H   0  0  0  0  0  0  0  0  0  0  0  0
   -1.0191    3.6682   -0.0837 H   0  0  0  0  0  0  0  0  0  0  0  0
   -3.1253    2.1569   -2.5887 H   0  0  0  0  0  0  0  0  0  0  0  0
   -4.1784    1.1023   -1.6903 H   0  0  0  0  0  0  0  0  0  0  0  0
   -3.1041    0.4852   -2.8496 H   0  0  0  0  0  0  0  0  0  0  0  0
   -1.9943   -0.7012   -1.6830 H   0  0  0  0  0  0  0  0  0  0  0  0
   -0.9290   -3.0217    0.8462 H   0  0  0  0  0  0  0  0  0  0  0  0
   -2.7685   -3.0411    0.9615 H   0  0  0  0  0  0  0  0  0  0  0  0
   -1.9352   -3.8739   -0.3221 H   0  0  0  0  0  0  0  0  0  0  0  0
   -4.2457   -2.2077   -0.3127 H   0  0  0  0  0  0  0  0  0  0  0  0
   -4.2838   -1.2092   -1.6337 H   0  0  0  0  0  0  0  0  0  0  0  0
   -3.4968   -2.7580   -1.7593 H   0  0  0  0  0  0  0  0  0  0  0  0
   -0.6366   -2.9340   -1.9785 H   0  0  0  0  0  0  0  0  0  0  0  0
    0.1196   -1.4250   -2.2670 H   0  0  0  0  0  0  0  0  0  0  0  0
    0.3466   -2.1094   -0.7413 H   0  0  0  0  0  0  0  0  0  0  0  0
    2.7763    1.4186   -2.1996 H   0  0  0  0  0  0  0  0  0  0  0  0
    2.7318   -0.3260   -2.5279 H   0  0  0  0  0  0  0  0  0  0  0  0
    4.1512    1.1488   -0.4385 H   0  0  0  0  0  0  0  0  0  0  0  0
    4.0134   -0.7424   -0.7315 H   0  0  0  0  0  0  0  0  0  0  0  0
    6.1263   -0.7692   -1.5095 H   0  0  0  0  0  0  0  0  0  0  0  0
    6.2853    0.9699   -1.2135 H   0  0  0  0  0  0  0  0  0  0  0  0
    6.0295    0.8600    1.0249 H   0  0  0  0  0  0  0  0  0  0  0  0
    6.6792   -0.7652    0.6621 H   0  0  0  0  0  0  0  0  0  0  0  0
    4.4019   -1.7510    0.9516 H   0  0  0  0  0  0  0  0  0  0  0  0
    5.1422   -0.9380    2.2501 H   0  0  0  0  0  0  0  0  0  0  0  0
  1  2  1  0
  2  3  2  0
  3  4  1  0
  4  5  1  0
  5  6  1  0
  5  7  1  0
  5  8  1  0
  5  9  1  0
  9 10  1  0
  9 11  1  0
  9 12  1  0
  5 13  1  0
 13 14  1  0
 13 15  1  0
 13 16  1  0
  4 17  1  0
 17 18  2  0
 18 19  1  0
 19 20  1  0
 20 21  1  0
 21 22  1  0
 22 23  1  0
 23  1  1  0
 18  2  1  0
  1 24  1  0
  1 25  1  0
  6 26  1  0
  6 27  1  0
  6 28  1  0
  7 29  1  0
  7 30  1  0
  7 31  1  0
  8 32  1  0
  8 33  1  0
  8 34  1  0
  9 35  1  0
 10 36  1  0
 10 37  1  0
 10 38  1  0
 11 39  1  0
 11 40  1  0
 11 41  1  0
 12 42  1  0
 12 43  1  0
 12 44  1  0
 13 45  1  0
 14 46  1  0
 14 47  1  0
 14 48  1  0
 15 49  1  0
 15 50  1  0
 15 51  1  0
 16 52  1  0
 16 53  1  0
 16 54  1  0
 19 55  1  0
 19 56  1  0
 20 57  1  0
 20 58  1  0
 21 59  1  0
 21 60  1  0
 22 61  1  0
 22 62  1  0
 23 63  1  0
 23 64  1  0
M  END
