
  --CCDC--092525    3D                              

 64 65  0  0  0  0  0  0  0  0999 V2000
    0.3478    0.6096   -0.9231 H      0
    0.9896    1.1369   -0.2188 C      0
    1.3666    0.4355    0.5241 H      0
    0.1439    2.1733    0.5013 C      0
   -1.0645    2.4970    0.0987 N      0
   -1.5438    3.5058    0.8630 N      0
   -2.8618    3.8803    0.9159 O      0
   -3.2308    2.5031    0.5986 C      0
   -3.0737    2.1492   -0.4088 H      0
   -4.2701    2.2226    0.7612 H      0
   -2.7088    1.7669    1.2113 H      0
   -4.2416    4.2681    0.8439 C      0
   -4.8811    3.6530    0.2276 H      0
   -4.4221    5.2516    0.4510 H      0
   -4.7514    4.1905    1.7992 H      0
   -3.0018    3.3621    2.2613 C      0
   -2.1490    2.8185    2.6575 H      0
   -3.2442    4.0833    3.0142 H      0
   -3.8280    2.6700    2.4073 H      0
   -2.6947    4.3273   -0.7095 P      0
   -3.2298    5.9241   -1.4201 C      0
   -4.2754    6.1508   -1.2290 H      0
   -3.1184    5.8779   -2.5014 H      0
   -2.6587    6.7831   -1.0982 H      0
   -4.1079    3.8312   -1.7572 C      0
   -4.3642    2.7790   -1.6680 H      0
   -3.8496    4.0020   -2.8002 H      0
   -5.0132    4.4057   -1.5720 H      0
   -1.0218    4.8006   -1.2661 C      0
   -0.7779    4.2408   -2.1666 H      0
   -0.2065    4.6398   -0.5660 H      0
   -1.0009    5.8493   -1.5499 H      0
   -2.5414    5.3972    1.6219 P      0
   -1.1131    6.3698    1.0361 C      0
   -0.1768    5.8256    0.9759 H      0
   -0.9470    7.1823    1.7407 H      0
   -1.2727    6.8672    0.0919 H      0
   -3.9477    6.1922    2.4940 C      0
   -4.7017    6.5772    1.8104 H      0
   -4.4500    5.5382    3.2027 H      0
   -3.5935    7.0557    3.0522 H      0
   -1.5735    5.5490    3.1752 C      0
   -0.5325    5.8041    2.9853 H      0
   -1.5782    4.6709    3.8168 H      0
   -1.9634    6.3724    3.7684 H      0
   -0.5963    3.8065    1.7610 N      0
    0.4493    3.0292    1.5874 C      0
    1.7151    3.1626    2.3961 C      0
    2.1332    2.1703    2.5589 H      0
    1.4716    3.6158    3.3559 H      0
    2.7563    4.0239    1.6984 C      0
    3.7141    3.8361    2.1813 H      0
    2.4731    5.0649    1.8464 H      0
    2.9454    3.8103    0.2141 C      0
    3.7576    4.4567   -0.1152 H      0
    2.0231    4.1032   -0.2854 H      0
    3.2815    2.3711   -0.2211 C      0
    3.4909    1.7837    0.6717 H      0
    4.1689    2.4026   -0.8514 H      0
    2.1786    1.6885   -0.9894 C      0
    1.7901    2.4119   -1.7047 H      0
    2.6291    0.8543   -1.5252 H      0
   -2.2390    3.2741   -1.5118 H      0
   -2.9834    6.4381    0.8080 H      0
  1  2  1
  2  3  1
  2  4  1
  4  5  2
  5  6  1
  6  7  1
  7  8  1
  8  9  1
  8 10  1
  8 11  1
  7 12  1
 12 13  1
 12 14  1
 12 15  1
  7 16  1
 16 17  1
 16 18  1
 16 19  1
  7 20  1
 20 21  1
 21 22  1
 21 23  1
 21 24  1
 20 25  1
 25 26  1
 25 27  1
 25 28  1
 20 29  1
 29 30  1
 29 31  1
 29 32  1
  7 33  1
 33 34  1
 34 35  1
 34 36  1
 34 37  1
 33 38  1
 38 39  1
 38 40  1
 38 41  1
 33 42  1
 42 43  1
 42 44  1
 42 45  1
  6 46  1
 46 47  2
  4 47  1
 47 48  1
 48 49  1
 48 50  1
 48 51  1
 51 52  1
 51 53  1
 51 54  1
 54 55  1
 54 56  1
 54 57  1
 57 58  1
 57 59  1
 57 60  1
  2 60  1
 60 61  1
 60 62  1
 20 63  1
 33 64  1
M  END
$$$$
