
 OpenBabel09252515173D

 76 82  0  0  1  0  0  0  0  0999 V2000
    1.0142    0.0751   -0.0644 H   0  0  0  0  0  0  0  0  0  0  0  0
    2.0842    0.0751   -0.0644 C   0  0  0  0  0  3  0  0  0  0  0  0
    2.5965   -1.3078   -0.4736 C   0  0  0  0  0  3  0  0  0  0  0  0
    2.2073   -2.0452    0.1970 H   0  0  0  0  0  0  0  0  0  0  0  0
    2.1662   -1.5999   -1.8048 C   0  0  0  0  0  3  0  0  0  0  0  0
    2.5065   -2.5817   -2.0602 H   0  0  0  0  0  0  0  0  0  0  0  0
    2.6537   -0.6859   -2.7888 C   0  0  0  0  0  3  0  0  0  0  0  0
    4.4836   -0.6902   -2.7723 P   0  0  0  0  0  0  0  0  0  0  0  0
    4.4762   -2.4845   -2.4128 C   0  0  0  0  0  3  0  0  0  0  0  0
    3.7287   -2.7170   -1.0977 C   0  0  0  0  0  3  0  0  0  0  0  0
    4.1958   -2.1534   -0.3174 H   0  0  0  0  0  0  0  0  0  0  0  0
    2.3703   -2.2965   -1.2417 C   0  0  0  0  0  3  0  0  0  0  0  0
    1.8738   -2.4371   -0.3043 H   0  0  0  0  0  0  0  0  0  0  0  0
    1.6433   -3.0070   -2.2457 C   0  0  0  0  0  3  0  0  0  0  0  0
    1.6433   -4.0516   -2.0140 H   0  0  0  0  0  0  0  0  0  0  0  0
    2.3065   -2.7862   -3.6072 C   0  0  0  0  0  3  0  0  0  0  0  0
    1.7885   -3.3514   -4.3537 H   0  0  0  0  0  0  0  0  0  0  0  0
    3.7657   -3.2470   -3.5360 C   0  0  0  0  0  3  0  0  0  0  0  0
    3.8007   -4.2973   -3.3343 H   0  0  0  0  0  0  0  0  0  0  0  0
    4.4739    0.5183   -1.3981 C   0  0  0  0  0  3  0  0  0  0  0  0
    3.7538    1.7944   -1.8400 C   0  0  0  0  0  3  0  0  0  0  0  0
    4.2378    2.1956   -2.7059 H   0  0  0  0  0  0  0  0  0  0  0  0
    2.3932    1.4889   -2.1531 C   0  0  0  0  0  3  0  0  0  0  0  0
    1.9163    2.3856   -2.4897 H   0  0  0  0  0  0  0  0  0  0  0  0
    1.6446    0.9680   -1.0533 C   0  0  0  0  0  3  0  0  0  0  0  0
    1.6483    1.6767   -0.2517 H   0  0  0  0  0  0  0  0  0  0  0  0
    2.2795   -0.3416   -0.5796 C   0  0  0  0  0  3  0  0  0  0  0  0
    1.7454   -0.7114    0.2707 H   0  0  0  0  0  0  0  0  0  0  0  0
    3.7394   -0.0820   -0.1948 C   0  0  0  0  0  3  0  0  0  0  0  0
    3.7934    0.8906    0.9721 C   0  0  0  0  0  0  0  0  0  0  0  0
    4.9549    1.2571    1.4696 N   0  0  0  0  0  0  0  0  0  0  0  0
    5.0071    2.1977    2.5981 C   0  0  0  0  0  3  0  0  0  0  0  0
    6.4325    2.7398    2.7279 C   0  0  0  0  0  3  0  0  0  0  0  0
    7.1136    1.9250    2.8589 H   0  0  0  0  0  0  0  0  0  0  0  0
    6.7763    3.4628    1.5440 C   0  0  0  0  0  3  0  0  0  0  0  0
    7.7852    3.8058    1.6407 H   0  0  0  0  0  0  0  0  0  0  0  0
    5.9406    4.5929    1.2876 C   0  0  0  0  0  3  0  0  0  0  0  0
    5.9920    5.2696    2.1149 H   0  0  0  0  0  0  0  0  0  0  0  0
    4.4953    4.1258    1.0996 C   0  0  0  0  0  3  0  0  0  0  0  0
    3.8613    4.9745    0.9495 H   0  0  0  0  0  0  0  0  0  0  0  0
    4.0462    3.3653    2.3513 C   0  0  1  0  0  0  0  0  0  0  0  0
    4.0580    4.0239    3.1945 H   0  0  0  0  0  0  0  0  0  0  0  0
    4.5053    0.0558   -4.9795 Co  0  0  0  0  0  0  0  0  0  0  0  0
    6.8352    0.0504   -4.9584 P   0  0  0  0  0  0  0  0  0  0  0  0
    6.8410    1.8717   -5.1369 C   0  0  0  0  0  0  0  0  0  0  0  0
    5.9641    2.2778   -4.6776 H   0  0  0  0  0  0  0  0  0  0  0  0
    7.7113    2.2738   -4.6617 H   0  0  0  0  0  0  0  0  0  0  0  0
    6.8510    2.1282   -6.1756 H   0  0  0  0  0  0  0  0  0  0  0  0
    6.8183   -0.7057   -3.2920 C   0  0  0  0  0  0  0  0  0  0  0  0
    5.9423   -1.3104   -3.1835 H   0  0  0  0  0  0  0  0  0  0  0  0
    7.6895   -1.3144   -3.1677 H   0  0  0  0  0  0  0  0  0  0  0  0
    6.8134    0.0656   -2.5504 H   0  0  0  0  0  0  0  0  0  0  0  0
    6.8462   -1.0148   -6.4464 C   0  0  0  0  0  0  0  0  0  0  0  0
    7.3590   -0.5132   -7.2404 H   0  0  0  0  0  0  0  0  0  0  0  0
    7.3465   -1.9340   -6.2234 H   0  0  0  0  0  0  0  0  0  0  0  0
    5.8396   -1.2201   -6.7456 H   0  0  0  0  0  0  0  0  0  0  0  0
    4.5069   -2.1516   -5.7255 P   0  0  0  0  0  0  0  0  0  0  0  0
    4.8335   -2.7278   -4.0195 C   0  0  0  0  0  0  0  0  0  0  0  0
    4.4002   -2.0416   -3.3222 H   0  0  0  0  0  0  0  0  0  0  0  0
    4.4014   -3.6970   -3.8816 H   0  0  0  0  0  0  0  0  0  0  0  0
    5.8897   -2.7819   -3.8574 H   0  0  0  0  0  0  0  0  0  0  0  0
    2.7843   -1.9550   -6.3109 C   0  0  0  0  0  0  0  0  0  0  0  0
    2.6181   -0.9369   -6.5951 H   0  0  0  0  0  0  0  0  0  0  0  0
    2.6194   -2.5923   -7.1545 H   0  0  0  0  0  0  0  0  0  0  0  0
    2.1081   -2.2210   -5.5254 H   0  0  0  0  0  0  0  0  0  0  0  0
    5.9031   -1.7719   -6.8460 C   0  0  0  0  0  0  0  0  0  0  0  0
    6.7403   -2.3887   -6.5943 H   0  0  0  0  0  0  0  0  0  0  0  0
    5.6107   -1.9627   -7.8574 H   0  0  0  0  0  0  0  0  0  0  0  0
    6.1744   -0.7422   -6.7414 H   0  0  0  0  0  0  0  0  0  0  0  0
    2.1437    0.7222   -2.4733 C   0  0  0  0  0  3  0  0  0  0  0  0
    2.5420    1.4151   -3.1848 H   0  0  0  0  0  0  0  0  0  0  0  0
    2.5971    1.1168   -1.0643 C   0  0  0  0  0  3  0  0  0  0  0  0
    3.6658    1.1526   -1.0283 H   0  0  0  0  0  0  0  0  0  0  0  0
    5.8635   -0.6934   -2.7598 H   0  0  0  0  0  0  0  0  0  0  0  0
    8.2151    0.0472   -4.9459 H   0  0  0  0  0  0  0  0  0  0  0  0
    4.5079   -3.4590   -6.1673 H   0  0  0  0  0  0  0  0  0  0  0  0
  1  2  1  0  0  0  0
  2  3  1  0  0  0  0
  2 72  1  0  0  0  0
  3  4  1  0  0  0  0
  3  5  1  0  0  0  0
  5  6  1  0  0  0  0
  5  7  1  0  0  0  0
  7  8  1  0  0  0  0
  7 70  1  0  0  0  0
  8  9  1  0  0  0  0
  8 20  1  0  0  0  0
  8 43  1  0  0  0  0
  8 74  1  0  0  0  0
  9 10  1  0  0  0  0
  9 18  1  0  0  0  0
 10 11  1  0  0  0  0
 10 12  1  0  0  0  0
 12 13  1  0  0  0  0
 12 14  1  0  0  0  0
 14 15  1  0  0  0  0
 14 16  1  0  0  0  0
 16 17  1  0  0  0  0
 16 18  1  0  0  0  0
 18 19  1  0  0  0  0
 20 21  1  0  0  0  0
 20 29  1  0  0  0  0
 21 22  1  0  0  0  0
 21 23  1  0  0  0  0
 23 24  1  0  0  0  0
 23 25  1  0  0  0  0
 25 26  1  0  0  0  0
 25 27  1  0  0  0  0
 27 28  1  0  0  0  0
 27 29  1  0  0  0  0
 29 30  1  0  0  0  0
 30 31  2  0  0  0  0
 30 43  1  0  0  0  0
 31 32  1  0  0  0  0
 32 33  1  0  0  0  0
 32 41  1  0  0  0  0
 33 34  1  0  0  0  0
 33 35  1  0  0  0  0
 35 36  1  0  0  0  0
 35 37  1  0  0  0  0
 37 38  1  0  0  0  0
 37 39  1  0  0  0  0
 39 40  1  0  0  0  0
 39 41  1  0  0  0  0
 41 42  1  1  0  0  0
 41 43  1  0  0  0  0
 42 43  1  0  0  0  0
 43 44  1  0  0  0  0
 43 57  1  0  0  0  0
 44 45  1  0  0  0  0
 44 49  1  0  0  0  0
 44 53  1  0  0  0  0
 44 75  1  0  0  0  0
 45 46  1  0  0  0  0
 45 47  1  0  0  0  0
 45 48  1  0  0  0  0
 49 50  1  0  0  0  0
 49 51  1  0  0  0  0
 49 52  1  0  0  0  0
 53 54  1  0  0  0  0
 53 55  1  0  0  0  0
 53 56  1  0  0  0  0
 57 58  1  0  0  0  0
 57 62  1  0  0  0  0
 57 66  1  0  0  0  0
 57 76  1  0  0  0  0
 58 59  1  0  0  0  0
 58 60  1  0  0  0  0
 58 61  1  0  0  0  0
 62 63  1  0  0  0  0
 62 64  1  0  0  0  0
 62 65  1  0  0  0  0
 66 67  1  0  0  0  0
 66 68  1  0  0  0  0
 66 69  1  0  0  0  0
 70 71  1  0  0  0  0
 70 72  1  0  0  0  0
 72 73  1  0  0  0  0
M  END
$$$$
