
  --CCDC--092525    3D                              

 57 64  0  0  0  0  0  0  0  0999 V2000
    1.0071    1.5608   -3.9090 C      0
    2.1405    0.9889   -3.1954 C      0
    3.0410    0.5623   -2.6399 N      0
    4.7763   -0.2469   -1.5564 Fe     1
    5.5981    1.5624   -2.5004 N      0
    6.0244    2.5009   -2.9900 C      0
    6.6020    3.6741   -3.6316 C      0
    5.8959   -1.6484   -2.8806 C      0
    7.2268   -1.9680   -2.4968 N      0
    8.2066   -0.9059   -2.4071 C      0
    7.8379    0.1163   -1.4466 N      0
    8.5112    1.3367   -1.3572 C      0
    7.9229    2.0216   -0.3851 C      0
    6.8965    1.2087    0.0969 N      0
    6.0158    1.5940    1.1807 C      0
    5.1049    0.5059    1.4523 N      0
    5.0701   -0.2985    2.5950 C      0
    4.0090   -1.0939    2.4573 C      0
    3.4249   -0.7550    1.2335 N      0
    2.2124   -1.2948    0.6657 C      0
    2.6818   -2.3053   -0.2538 N      0
    2.5985   -3.6939   -0.1107 C      0
    3.0952   -4.2191   -1.2334 C      0
    3.4667   -3.1406   -2.0419 N      0
    4.0617   -3.1832   -3.3542 C      0
    5.4346   -2.9829   -2.9665 N      0
    6.3612   -3.9708   -2.6251 C      0
    7.4919   -3.3306   -2.3310 C      0
    3.2297   -1.8626   -1.4831 C      0
    4.0846    0.2614    0.4995 C      0
    6.7431   -0.0661   -0.5412 C      0
    1.3036    2.4581   -4.4480 H      0
    0.2118    1.8290   -3.2165 H      0
    0.6046    0.8501   -4.6278 H      0
    5.8578    4.1902   -4.2348 H      0
    7.4273    3.3902   -4.2817 H      0
    6.9810    4.3729   -2.8887 H      0
    9.1776   -1.3326   -2.1272 H      0
    8.3208   -0.4412   -3.3943 H      0
    9.3540    1.6589   -1.9598 H      0
    8.1882    3.0133   -0.0338 H      0
    6.6026    1.8247    2.0784 H      0
    5.4499    2.4900    0.8973 H      0
    5.7532   -0.2642    3.4374 H      0
    3.6576   -1.8395    3.1630 H      0
    1.5738   -1.7347    1.4415 H      0
    1.6550   -0.5153    0.1316 H      0
    2.2006   -4.2370    0.7402 H      0
    3.1894   -5.2734   -1.4721 H      0
    3.9124   -4.1559   -3.8389 H      0
    3.6964   -2.3701   -3.9936 H      0
    6.1968   -5.0432   -2.6134 H      0
    8.4382   -3.7798   -2.0481 H      0
    5.9176   -1.2203   -3.8947 H      0
    2.3786   -1.4483   -2.0453 H      0
    3.4282    1.1434    0.4434 H      0
    6.9291   -0.8976    0.1560 H      0
  1  2  1
  2  3  3
  3  4  1
  4  5  1
  5  6  3
  6  7  1
  4  8  1
  8  9  1
  9 10  1
 10 11  1
 11 12  1
 12 13  2
 13 14  1
 14 15  1
 15 16  1
 16 17  1
 17 18  2
 18 19  1
 19 20  1
 20 21  1
 21 22  1
 22 23  2
 23 24  1
 24 25  1
 25 26  1
  8 26  1
 26 27  1
 27 28  2
  9 28  1
 24 29  1
  4 29  1
 21 29  1
 19 30  1
  4 30  1
 16 30  1
 14 31  1
  4 31  1
 11 31  1
  1 32  1
  1 33  1
  1 34  1
  7 35  1
  7 36  1
  7 37  1
 10 38  1
 10 39  1
 12 40  1
 13 41  1
 15 42  1
 15 43  1
 17 44  1
 18 45  1
 20 46  1
 20 47  1
 22 48  1
 23 49  1
 25 50  1
 25 51  1
 27 52  1
 28 53  1
  8 54  1
 29 55  1
 30 56  1
 31 57  1
M  CHG  1   4   3
M  END
$$$$
