
 OpenBabel09252517503D

 26 26  0  0  0  0  0  0  0  0999 V2000
    0.9638    0.0667   -0.0343 C   0  0  0  0  0  0  0  0  0  0  0  0
    0.3498    0.3220   -1.4075 C   0  0  0  0  0  0  0  0  0  0  0  0
    1.0023   -0.4940   -2.5169 C   0  0  0  0  0  0  0  0  0  0  0  0
   -1.0877    0.1709   -1.4217 O   0  0  0  0  0  0  0  0  0  0  0  0
   -1.6394   -1.0147   -1.0750 C   0  0  0  0  0  0  0  0  0  0  0  0
   -1.0604   -2.0202   -0.7011 O   0  0  0  0  0  0  0  0  0  0  0  0
   -3.1175   -0.9223   -1.1653 C   0  0  0  0  0  0  0  0  0  0  0  0
   -3.8867   -1.7430   -0.3278 C   0  0  0  0  0  0  0  0  0  0  0  0
   -5.2828   -1.7065   -0.3930 C   0  0  0  0  0  0  0  0  0  0  0  0
   -5.9085   -0.8535   -1.3126 C   0  0  0  0  0  0  0  0  0  0  0  0
   -5.1468   -0.0349   -2.1592 C   0  0  0  0  0  0  0  0  0  0  0  0
   -3.7503   -0.0696   -2.0815 C   0  0  0  0  0  0  0  0  0  0  0  0
   -7.3748   -0.8225   -1.3954 N   0  0  0  0  0  0  0  0  0  0  0  0
   -8.0119   -1.5210   -0.5945 O   0  0  0  0  0  0  0  0  0  0  0  0
   -7.8870   -0.0995   -2.2616 O   0  0  0  0  0  0  0  0  0  0  0  0
    0.9493   -0.9937    0.2340 H   0  0  0  0  0  0  0  0  0  0  0  0
    0.4097    0.6045    0.7419 H   0  0  0  0  0  0  0  0  0  0  0  0
    2.0081    0.3947   -0.0112 H   0  0  0  0  0  0  0  0  0  0  0  0
    0.5173    1.3806   -1.6396 H   0  0  0  0  0  0  0  0  0  0  0  0
    0.8832   -1.5696   -2.3557 H   0  0  0  0  0  0  0  0  0  0  0  0
    0.5365   -0.2637   -3.4811 H   0  0  0  0  0  0  0  0  0  0  0  0
    2.0726   -0.2759   -2.5857 H   0  0  0  0  0  0  0  0  0  0  0  0
   -3.3980   -2.4120    0.3796 H   0  0  0  0  0  0  0  0  0  0  0  0
   -5.8608   -2.3478    0.2700 H   0  0  0  0  0  0  0  0  0  0  0  0
   -5.6209    0.6266   -2.8823 H   0  0  0  0  0  0  0  0  0  0  0  0
   -3.1643    0.5596   -2.7487 H   0  0  0  0  0  0  0  0  0  0  0  0
  1  2  1  0  0  0  0
  1 16  1  0  0  0  0
  1 17  1  0  0  0  0
  1 18  1  0  0  0  0
  2  3  1  0  0  0  0
  2  4  1  0  0  0  0
  2 19  1  0  0  0  0
  3 20  1  0  0  0  0
  3 21  1  0  0  0  0
  3 22  1  0  0  0  0
  4  5  1  0  0  0  0
  5  6  2  0  0  0  0
  5  7  1  0  0  0  0
  7  8  1  0  0  0  0
  7 12  2  0  0  0  0
  8  9  2  0  0  0  0
  8 23  1  0  0  0  0
  9 10  1  0  0  0  0
  9 24  1  0  0  0  0
 10 11  2  0  0  0  0
 10 13  1  0  0  0  0
 11 12  1  0  0  0  0
 11 25  1  0  0  0  0
 12 26  1  0  0  0  0
 13 14  2  0  0  0  0
 13 15  2  0  0  0  0
M  END
$$$$
