
     RDKit          3D

 26 26  0  0  0  0  0  0  0  0999 V2000
   -3.4170    1.1316    0.1693 C   0  0  0  0  0  0  0  0  0  0  0  0
   -2.8391   -0.1959   -0.3079 C   0  0  0  0  0  0  0  0  0  0  0  0
   -3.5250   -1.3647    0.3887 C   0  0  0  0  0  0  0  0  0  0  0  0
   -1.4407   -0.2622    0.0312 O   0  0  0  0  0  0  0  0  0  0  0  0
   -0.5868    0.3252   -0.8420 C   0  0  0  0  0  0  0  0  0  0  0  0
   -0.8925    0.8963   -1.8761 O   0  0  0  0  0  0  0  0  0  0  0  0
    0.8190    0.1861   -0.3698 C   0  0  0  0  0  0  0  0  0  0  0  0
    1.8390    0.7423   -1.1579 C   0  0  0  0  0  0  0  0  0  0  0  0
    3.1773    0.6421   -0.7634 C   0  0  0  0  0  0  0  0  0  0  0  0
    3.4971   -0.0197    0.4291 C   0  0  0  0  0  0  0  0  0  0  0  0
    2.4880   -0.5792    1.2249 C   0  0  0  0  0  0  0  0  0  0  0  0
    1.1513   -0.4747    0.8230 C   0  0  0  0  0  0  0  0  0  0  0  0
    4.9006   -0.1284    0.8491 N   0  0  0  0  0  0  0  0  0  0  0  0
    5.7618    0.3796    0.1176 O   0  0  0  0  0  0  0  0  0  0  0  0
    5.1392   -0.7218    1.9104 O   0  0  0  0  0  0  0  0  0  0  0  0
   -4.4913    1.1904   -0.0304 H   0  0  0  0  0  0  0  0  0  0  0  0
   -2.9275    1.9730   -0.3317 H   0  0  0  0  0  0  0  0  0  0  0  0
   -3.2508    1.2671    1.2437 H   0  0  0  0  0  0  0  0  0  0  0  0
   -2.9773   -0.3068   -1.3904 H   0  0  0  0  0  0  0  0  0  0  0  0
   -3.3810   -1.3159    1.4738 H   0  0  0  0  0  0  0  0  0  0  0  0
   -4.5983   -1.3804    0.1766 H   0  0  0  0  0  0  0  0  0  0  0  0
   -3.0897   -2.3136    0.0567 H   0  0  0  0  0  0  0  0  0  0  0  0
    1.5935    1.2578   -2.0861 H   0  0  0  0  0  0  0  0  0  0  0  0
    3.9490    1.0820   -1.3926 H   0  0  0  0  0  0  0  0  0  0  0  0
    2.7221   -1.0963    2.1539 H   0  0  0  0  0  0  0  0  0  0  0  0
    0.3791   -0.9141    1.4515 H   0  0  0  0  0  0  0  0  0  0  0  0
  1  2  1  0
  2  3  1  0
  2  4  1  0
  4  5  1  0
  5  6  2  0
  5  7  1  0
  7  8  2  0
  8  9  1  0
  9 10  2  0
 10 11  1  0
 11 12  2  0
 10 13  1  0
 13 14  1  0
 13 15  2  0
 12  7  1  0
  1 16  1  0
  1 17  1  0
  1 18  1  0
  2 19  1  0
  3 20  1  0
  3 21  1  0
  3 22  1  0
  8 23  1  0
  9 24  1  0
 11 25  1  0
 12 26  1  0
M  CHG  2  13   1  14  -1
M  END
