
     RDKit          3D

 28 28  0  0  0  0  0  0  0  0999 V2000
   -2.8416    1.6656   -2.4348 C   0  0  0  0  0  0  0  0  0  0  0  0
   -1.8126    1.2124   -1.4067 C   0  0  0  0  0  0  0  0  0  0  0  0
   -1.4236   -0.2642   -1.2402 C   0  0  0  0  0  0  0  0  0  0  0  0
   -0.2709   -0.4679   -0.3234 C   0  0  0  0  0  0  0  0  0  0  0  0
    0.3073    0.4511    0.4712 C   0  0  0  0  0  0  0  0  0  0  0  0
    1.4551    0.1591    1.3452 C   0  0  0  0  0  0  0  0  0  0  0  0
    2.4791    1.1118    1.4565 C   0  0  0  0  0  0  0  0  0  0  0  0
    3.5714    0.8832    2.2968 C   0  0  0  0  0  0  0  0  0  0  0  0
    3.6345   -0.2923    3.0341 C   0  0  0  0  0  0  0  0  0  0  0  0
    4.6810   -0.5100    3.8410 F   0  0  0  0  0  0  0  0  0  0  0  0
    2.6242   -1.2419    2.9509 C   0  0  0  0  0  0  0  0  0  0  0  0
    1.5312   -1.0146    2.1108 C   0  0  0  0  0  0  0  0  0  0  0  0
   -2.0127   -1.3361   -1.8422 C   0  0  0  0  0  0  0  0  0  0  0  0
   -3.1243   -1.2434   -2.7277 C   0  0  0  0  0  0  0  0  0  0  0  0
   -4.0305   -1.1978   -3.4520 N   0  0  0  0  0  0  0  0  0  0  0  0
   -1.5700   -2.6761   -1.6064 C   0  0  0  0  0  0  0  0  0  0  0  0
   -1.2009   -3.7579   -1.4036 N   0  0  0  0  0  0  0  0  0  0  0  0
   -2.8971    2.7602   -2.4389 H   0  0  0  0  0  0  0  0  0  0  0  0
   -2.5664    1.3539   -3.4468 H   0  0  0  0  0  0  0  0  0  0  0  0
   -3.8431    1.3012   -2.1893 H   0  0  0  0  0  0  0  0  0  0  0  0
   -0.8974    1.7698   -1.6511 H   0  0  0  0  0  0  0  0  0  0  0  0
   -2.1618    1.5801   -0.4324 H   0  0  0  0  0  0  0  0  0  0  0  0
    0.1630   -1.4684   -0.2968 H   0  0  0  0  0  0  0  0  0  0  0  0
   -0.0326    1.4820    0.5086 H   0  0  0  0  0  0  0  0  0  0  0  0
    2.4400    2.0356    0.8835 H   0  0  0  0  0  0  0  0  0  0  0  0
    4.3699    1.6135    2.3806 H   0  0  0  0  0  0  0  0  0  0  0  0
    2.6895   -2.1497    3.5423 H   0  0  0  0  0  0  0  0  0  0  0  0
    0.7395   -1.7592    2.0706 H   0  0  0  0  0  0  0  0  0  0  0  0
  1  2  1  0
  2  3  1  0
  3  4  1  0
  4  5  2  3
  5  6  1  0
  6  7  2  0
  7  8  1  0
  8  9  2  0
  9 10  1  0
  9 11  1  0
 11 12  2  0
  3 13  2  3
 13 14  1  0
 14 15  3  0
 13 16  1  0
 16 17  3  0
 12  6  1  0
  1 18  1  0
  1 19  1  0
  1 20  1  0
  2 21  1  0
  2 22  1  0
  4 23  1  0
  5 24  1  0
  7 25  1  0
  8 26  1  0
 11 27  1  0
 12 28  1  0
M  END
