
     RDKit          3D

 28 28  0  0  0  0  0  0  0  0999 V2000
    1.8300   -0.5246   -2.7132 C   0  0  0  0  0  0  0  0  0  0  0  0
    0.4954   -1.2063   -2.4346 C   0  0  0  0  0  0  0  0  0  0  0  0
    0.4002   -1.7425   -1.0060 C   0  0  0  0  0  0  0  0  0  0  0  0
   -0.0218   -0.7919    0.0409 C   0  0  0  0  0  0  0  0  0  0  0  0
   -0.3027    0.5137   -0.1155 C   0  0  0  0  0  0  0  0  0  0  0  0
   -0.7075    1.3929    0.9930 C   0  0  0  0  0  0  0  0  0  0  0  0
   -1.6341    0.9883    1.9661 C   0  0  0  0  0  0  0  0  0  0  0  0
   -2.0152    1.8626    2.9871 C   0  0  0  0  0  0  0  0  0  0  0  0
   -1.4789    3.1433    3.0292 C   0  0  0  0  0  0  0  0  0  0  0  0
   -1.8460    3.9813    4.0072 F   0  0  0  0  0  0  0  0  0  0  0  0
   -0.5718    3.5690    2.0673 C   0  0  0  0  0  0  0  0  0  0  0  0
   -0.1902    2.6959    1.0458 C   0  0  0  0  0  0  0  0  0  0  0  0
    0.6744   -3.0461   -0.7227 C   0  0  0  0  0  0  0  0  0  0  0  0
    1.0987   -3.9597   -1.7339 C   0  0  0  0  0  0  0  0  0  0  0  0
    1.4445   -4.6912   -2.5659 N   0  0  0  0  0  0  0  0  0  0  0  0
    0.5728   -3.5849    0.5948 C   0  0  0  0  0  0  0  0  0  0  0  0
    0.4813   -4.0107    1.6707 N   0  0  0  0  0  0  0  0  0  0  0  0
    2.6647   -1.2208   -2.5794 H   0  0  0  0  0  0  0  0  0  0  0  0
    1.9952    0.3330   -2.0538 H   0  0  0  0  0  0  0  0  0  0  0  0
    1.8574   -0.1626   -3.7461 H   0  0  0  0  0  0  0  0  0  0  0  0
   -0.3319   -0.5191   -2.6474 H   0  0  0  0  0  0  0  0  0  0  0  0
    0.3592   -2.0089   -3.1690 H   0  0  0  0  0  0  0  0  0  0  0  0
   -0.0981   -1.1875    1.0548 H   0  0  0  0  0  0  0  0  0  0  0  0
   -0.2231    1.0131   -1.0764 H   0  0  0  0  0  0  0  0  0  0  0  0
   -2.0765   -0.0047    1.9359 H   0  0  0  0  0  0  0  0  0  0  0  0
   -2.7288    1.5536    3.7443 H   0  0  0  0  0  0  0  0  0  0  0  0
   -0.1686    4.5754    2.1171 H   0  0  0  0  0  0  0  0  0  0  0  0
    0.5212    3.0395    0.2979 H   0  0  0  0  0  0  0  0  0  0  0  0
  1  2  1  0
  2  3  1  0
  3  4  1  0
  4  5  2  3
  5  6  1  0
  6  7  2  0
  7  8  1  0
  8  9  2  0
  9 10  1  0
  9 11  1  0
 11 12  2  0
  3 13  2  3
 13 14  1  0
 14 15  3  0
 13 16  1  0
 16 17  3  0
 12  6  1  0
  1 18  1  0
  1 19  1  0
  1 20  1  0
  2 21  1  0
  2 22  1  0
  4 23  1  0
  5 24  1  0
  7 25  1  0
  8 26  1  0
 11 27  1  0
 12 28  1  0
M  END
