
     RDKit          3D

 32 35  0  0  0  0  0  0  0  0999 V2000
    0.3345    3.7152    1.1961 O   0  0  0  0  0  0  0  0  0  0  0  0
    0.6673    2.5792    0.8709 C   0  0  0  0  0  0  0  0  0  0  0  0
    1.9756    2.2006    0.8961 N   0  0  0  0  0  0  0  0  0  0  0  0
    2.4268    0.9652    0.4331 C   0  0  0  0  0  0  0  0  0  0  0  0
    3.8049    0.7380    0.3645 C   0  0  0  0  0  0  0  0  0  0  0  0
    4.2832   -0.4422   -0.1975 C   0  0  0  0  0  0  0  0  0  0  0  0
    3.3854   -1.3748   -0.7070 C   0  0  0  0  0  0  0  0  0  0  0  0
    2.0075   -1.1438   -0.6238 C   0  0  0  0  0  0  0  0  0  0  0  0
    1.4994    0.0101   -0.0084 C   0  0  0  0  0  0  0  0  0  0  0  0
    0.0392    0.2853    0.1322 C   0  0  0  0  0  0  0  0  0  0  0  0
   -0.3302    1.5474    0.4635 C   0  0  0  0  0  0  0  0  0  0  0  0
   -1.7658    2.0140    0.4433 C   0  0  0  0  0  0  0  0  0  0  0  0
   -2.5801    1.2466   -0.6001 C   0  0  0  0  0  0  0  0  0  0  0  0
   -2.3627   -0.2316   -0.4224 C   0  0  0  0  0  0  0  0  0  0  0  0
   -3.4181   -1.1321   -0.6252 C   0  0  0  0  0  0  0  0  0  0  0  0
   -3.2351   -2.4896   -0.3783 C   0  0  0  0  0  0  0  0  0  0  0  0
   -2.0064   -2.9477    0.0860 C   0  0  0  0  0  0  0  0  0  0  0  0
   -0.9472   -2.0535    0.2694 C   0  0  0  0  0  0  0  0  0  0  0  0
   -1.0884   -0.6904   -0.0288 C   0  0  0  0  0  0  0  0  0  0  0  0
    2.6323    2.9155    1.1765 H   0  0  0  0  0  0  0  0  0  0  0  0
    4.5112    1.4813    0.7231 H   0  0  0  0  0  0  0  0  0  0  0  0
    5.3532   -0.6217   -0.2633 H   0  0  0  0  0  0  0  0  0  0  0  0
    3.7538   -2.2821   -1.1801 H   0  0  0  0  0  0  0  0  0  0  0  0
    1.3451   -1.8775   -1.0745 H   0  0  0  0  0  0  0  0  0  0  0  0
   -1.8361    3.0802    0.1989 H   0  0  0  0  0  0  0  0  0  0  0  0
   -2.1961    1.8802    1.4440 H   0  0  0  0  0  0  0  0  0  0  0  0
   -2.2772    1.5308   -1.6156 H   0  0  0  0  0  0  0  0  0  0  0  0
   -3.6398    1.5024   -0.4848 H   0  0  0  0  0  0  0  0  0  0  0  0
   -4.3915   -0.7754   -0.9535 H   0  0  0  0  0  0  0  0  0  0  0  0
   -4.0574   -3.1855   -0.5231 H   0  0  0  0  0  0  0  0  0  0  0  0
   -1.8708   -4.0018    0.3146 H   0  0  0  0  0  0  0  0  0  0  0  0
   -0.0167   -2.4423    0.6745 H   0  0  0  0  0  0  0  0  0  0  0  0
  1  2  2  0
  2  3  1  0
  3  4  1  0
  4  5  2  0
  5  6  1  0
  6  7  2  0
  7  8  1  0
  8  9  2  0
  9 10  1  0
 10 11  2  0
 11 12  1  0
 12 13  1  0
 13 14  1  0
 14 15  2  0
 15 16  1  0
 16 17  2  0
 17 18  1  0
 18 19  2  0
 11  2  1  0
 19 14  1  0
  9  4  1  0
 19 10  1  0
  3 20  1  0
  5 21  1  0
  6 22  1  0
  7 23  1  0
  8 24  1  0
 12 25  1  0
 12 26  1  0
 13 27  1  0
 13 28  1  0
 15 29  1  0
 16 30  1  0
 17 31  1  0
 18 32  1  0
M  END
