
  --CCDC--092525    3D                              

 46 54  0  0  0  0  0  0  0  0999 V2000
   -0.1580    0.7620    1.7457 Cl     0
    1.1590    2.4483    0.6610 Ir     0
   -0.6402    3.5298    0.8339 C      0
   -0.8610    2.3768    0.1990 C      0
   -1.6993    1.3268   -0.4508 C      0
   -2.9968    0.8777   -0.4693 C      0
   -3.2652   -0.2901   -1.1845 C      0
   -2.3116   -0.9275   -1.9408 C      0
   -0.9812   -0.4463   -1.9816 C      0
    0.0822   -0.9377   -2.7667 C      0
    1.3020   -0.3266   -2.6894 C      0
    1.5653    0.6717   -1.7606 C      0
    0.5872    1.1485   -0.9060 C      0
   -0.6956    0.6408   -1.1399 C      0
    2.9434    1.8369    1.2184 C      0
    3.5193    0.5415    1.7847 C      0
    2.7642    3.5177    1.0927 C      0
    2.9639    4.6390    2.1269 C      0
    2.2528    3.8488   -0.2399 C      0
    2.0336    5.3231   -0.5231 C      0
    3.1055    2.9436    0.5429 C      0
    4.3540    2.3659   -0.1476 C      0
    2.5001    2.6536    2.0929 C      0
    2.5813    2.1322    3.5186 C      0
   -1.1013    4.4272    1.2251 H      0
   -3.7630    1.3701    0.1199 H      0
   -4.2618   -0.7156   -1.1400 H      0
   -2.5651   -1.8190   -2.5049 H      0
   -0.0804   -1.7842   -3.4246 H      0
    2.1049   -0.6505   -3.3424 H      0
    2.5568    1.0884   -1.7026 H      0
    3.8998   -0.0614    0.9613 H      0
    2.7702   -0.0542    2.3097 H      0
    4.3583    0.7229    2.4535 H      0
    2.0318    4.9498    2.6069 H      0
    3.3533    5.5257    1.6341 H      0
    3.7071    4.4184    2.8992 H      0
    1.8348    5.4669   -1.5821 H      0
    2.9188    5.9078   -0.2822 H      0
    1.1865    5.7299    0.0295 H      0
    4.7045    3.0927   -0.8779 H      0
    4.1989    1.4344   -0.6920 H      0
    5.2028    2.2026    0.5233 H      0
    2.0027    1.2168    3.6364 H      0
    2.1428    2.8618    4.1975 H      0
    3.6091    1.9541    3.8280 H      0
  1  2  1
  2  3  1
  3  4  2
  2  4  1
  4  5  1
  5  6  4
  6  7  4
  7  8  4
  8  9  4
  9 10  4
 10 11  4
 11 12  4
 12 13  4
  2 13  1
 13 14  4
  5 14  4
  9 14  4
  2 15  1
 15 16  1
 15 17  4
  2 17  1
 17 18  1
 17 19  4
  2 19  1
 19 20  1
 19 21  4
  2 21  1
 21 22  1
 21 23  4
  2 23  1
 15 23  4
 23 24  1
  3 25  1
  6 26  1
  7 27  1
  8 28  1
 10 29  1
 11 30  1
 12 31  1
 16 32  1
 16 33  1
 16 34  1
 18 35  1
 18 36  1
 18 37  1
 20 38  1
 20 39  1
 20 40  1
 22 41  1
 22 42  1
 22 43  1
 24 44  1
 24 45  1
 24 46  1
M  END
$$$$
