
  --CCDC--092525    3D                              

114121  0  0  0  0  0  0  0  0999 V2000
    0.1947    0.0388    0.5242 C      0
    1.3202    0.0510   -0.3072 O      0
    1.9788   -1.1936   -0.2467 C      0
    3.0388   -1.2350   -1.3059 C      0
    3.9313   -0.1650   -1.0988 O      0
    5.1576   -0.2453   -1.7836 C      0
    2.9442    2.1559   -0.2706 Eu     0
    4.7526    2.6604   -2.1552 N      0
    5.7207    2.8289   -3.0599 C      0
    6.9591    3.0445   -4.2173 S      0
    0.8766    3.0835   -1.7050 N      0
    0.1774    2.3079   -2.7044 C      0
   -1.2393    2.1311   -2.6880 C      0
   -1.8818    1.7822   -3.8800 C      0
   -1.1779    1.5035   -5.0313 C      0
    0.1966    1.4849   -4.9836 C      0
    0.8950    1.8035   -3.8217 C      0
    2.3864    1.5413   -3.9011 C      0
    2.6376    0.0951   -4.3295 C      0
    3.0539    2.4653   -4.9162 C      0
   -2.1529    2.1841   -1.4658 C      0
   -3.2629    3.2419   -1.5239 C      0
   -2.9182    0.8604   -1.4059 C      0
    0.4721    4.4436   -1.4375 C      0
    1.2548    5.2486   -0.6051 C      0
    2.4852    4.7731   -0.0730 N      0
    3.4064    5.6582    0.5920 C      0
    4.3989    6.3700   -0.1423 C      0
    5.5272    6.8003    0.5533 C      0
    5.6101    6.7427    1.9276 C      0
    4.4963    6.3423    2.6385 C      0
    3.3487    5.8837    1.9913 C      0
    2.1098    5.7861    2.8667 C      0
    2.3333    4.9203    4.1001 C      0
    1.7975    7.1585    3.4629 C      0
    4.4373    6.8411   -1.5985 C      0
    5.4879    6.2789   -2.5518 C      0
    4.5261    8.3583   -1.6638 C      0
    0.6587    6.5764   -0.4655 C      0
    0.9306    7.7594    0.1833 C      0
   -0.0176    8.7718    0.1989 C      0
   -1.1940    8.6701   -0.4843 C      0
   -1.4537    7.5309   -1.2749 C      0
   -2.5600    7.3522   -2.1252 C      0
   -2.6121    6.2547   -2.9309 C      0
   -1.6417    5.2588   -2.8970 C      0
   -0.6300    5.2866   -1.9577 C      0
   -0.5145    6.4872   -1.2277 C      0
    4.9755    2.3607    1.4115 O      0
    6.0883    3.1079    1.0073 C      0
    4.6066    2.6405    2.7464 C      0
    3.4249    1.7905    3.1385 C      0
    2.3473    2.1541    2.3071 O      0
    1.0655    2.3036    2.8659 C      0
   -0.3040    1.0052    0.5122 H      0
    0.4753   -0.1929    1.5481 H      0
   -0.5219   -0.7126    0.2010 H      0
    1.2656   -2.0134   -0.3961 H      0
    2.4164   -1.3372    0.7469 H      0
    3.5760   -2.1903   -1.2671 H      0
    2.5751   -1.1652   -2.2925 H      0
    5.3952   -1.2803   -2.0201 H      0
    5.9677    0.1506   -1.1731 H      0
    5.1299    0.3162   -2.7158 H      0
   -2.9621    1.6867   -3.9140 H      0
   -1.6978    1.2563   -5.9506 H      0
    0.7475    1.2092   -5.8769 H      0
    2.8259    1.6783   -2.9101 H      0
    2.7546    0.0242   -5.4086 H      0
    1.7995   -0.5367   -4.0486 H      0
    3.5391   -0.2975   -3.8635 H      0
    2.5387    2.4034   -5.8703 H      0
    4.0874    2.1771   -5.0877 H      0
    3.0326    3.4997   -4.5800 H      0
   -1.5464    2.3217   -0.5572 H      0
   -3.5063    3.5056   -2.5501 H      0
   -3.0152    4.1578   -1.0071 H      0
   -4.1733    2.8696   -1.0609 H      0
   -3.4115    0.7281   -0.4426 H      0
   -2.2498    0.0208   -1.5697 H      0
   -3.6786    0.8288   -2.1885 H      0
    6.3563    7.2222   -0.0071 H      0
    6.5178    7.0588    2.4334 H      0
    4.5042    6.4227    3.7209 H      0
    1.2599    5.4145    2.2743 H      0
    1.3965    4.7768    4.6340 H      0
    3.0419    5.3976    4.7775 H      0
    2.7206    3.9504    3.8246 H      0
    0.8669    7.1284    4.0225 H      0
    1.7156    7.9393    2.7145 H      0
    2.5874    7.4504    4.1526 H      0
    3.4627    6.5696   -2.0339 H      0
    6.4309    6.1014   -2.0434 H      0
    5.6751    6.9900   -3.3527 H      0
    5.1538    5.3599   -3.0220 H      0
    5.5295    8.6670   -1.4052 H      0
    3.8250    8.8148   -0.9696 H      0
    4.3032    8.7244   -2.6640 H      0
    1.8790    7.8928    0.6929 H      0
    0.1833    9.6749    0.7638 H      0
   -1.9187    9.4741   -0.4435 H      0
   -3.3448    8.0973   -2.1595 H      0
   -3.4452    6.1548   -3.6175 H      0
   -1.7068    4.4421   -3.6046 H      0
    6.4197    2.7955    0.0186 H      0
    6.9029    2.9605    1.7120 H      0
    5.8447    4.1689    0.9694 H      0
    5.4495    2.4344    3.4143 H      0
    4.3766    3.7074    2.8617 H      0
    3.6555    0.7260    3.0160 H      0
    3.1627    1.9594    4.1913 H      0
    0.4556    1.4196    2.7355 H      0
    0.5348    3.1333    2.4027 H      0
    1.1242    2.4855    3.9362 H      0
  1  2  1
  2  3  1
  3  4  1
  4  5  1
  5  6  1
  5  7  1
  2  7  1
  7  8  1
  8  9  4
  9 10  4
  7 11  1
 11 12  1
 12 13  4
 13 14  4
 14 15  4
 15 16  4
 16 17  4
 12 17  4
 17 18  1
 18 19  1
 18 20  1
 13 21  1
 21 22  1
 21 23  1
 11 24  1
 24 25  2
 25 26  1
  7 26  1
 26 27  1
 27 28  4
 28 29  4
 29 30  4
 30 31  4
 31 32  4
 27 32  4
 32 33  1
 33 34  1
 33 35  1
 28 36  1
 36 37  1
 36 38  1
 25 39  1
 39 40  4
 40 41  4
 41 42  4
 42 43  4
 43 44  4
 44 45  4
 45 46  4
 46 47  4
 24 47  1
 47 48  4
 39 48  4
 43 48  4
  7 49  1
 49 50  1
 49 51  1
 51 52  1
 52 53  1
  7 53  1
 53 54  1
  1 55  1
  1 56  1
  1 57  1
  3 58  1
  3 59  1
  4 60  1
  4 61  1
  6 62  1
  6 63  1
  6 64  1
 14 65  1
 15 66  1
 16 67  1
 18 68  1
 19 69  1
 19 70  1
 19 71  1
 20 72  1
 20 73  1
 20 74  1
 21 75  1
 22 76  1
 22 77  1
 22 78  1
 23 79  1
 23 80  1
 23 81  1
 29 82  1
 30 83  1
 31 84  1
 33 85  1
 34 86  1
 34 87  1
 34 88  1
 35 89  1
 35 90  1
 35 91  1
 36 92  1
 37 93  1
 37 94  1
 37 95  1
 38 96  1
 38 97  1
 38 98  1
 40 99  1
 41100  1
 42101  1
 44102  1
 45103  1
 46104  1
 50105  1
 50106  1
 50107  1
 51108  1
 51109  1
 52110  1
 52111  1
 54112  1
 54113  1
 54114  1
M  END
$$$$
