
  --CCDC--092525    3D                              

 73 77  0  0  0  0  0  0  0  0999 V2000
    0.1886   -0.0881   -0.0013 Cl     0
    1.3123    2.0320    0.0299 Ir     0
    2.3217    3.8911   -0.0332 N      0
    2.2081    4.7332   -1.1173 C      0
    1.8372    4.3850   -2.4752 C      0
    1.2494    3.1035   -2.9793 C      0
   -0.0903    2.6472   -1.8767 P      0
   -1.1299    4.0944   -1.5468 C      0
   -1.9563    4.4968   -2.7679 C      0
   -2.0532    3.8747   -0.3472 C      0
   -0.9895    1.2456   -2.5929 C      0
   -2.2918    0.9402   -1.8516 C      0
   -1.3025    1.4923   -4.0694 C      0
    1.9151    5.3069   -3.4870 C      0
    2.2266    6.6295   -3.2732 C      0
    2.4581    7.0473   -2.0082 C      0
    2.4583    6.1265   -0.9355 C      0
    2.7051    6.6137    0.3288 C      0
    2.9572    5.7526    1.3699 C      0
    3.2966    6.2710    2.6408 C      0
    3.7266    5.4424    3.6222 C      0
    3.8941    4.1043    3.3397 C      0
    3.5628    3.5597    2.1258 C      0
    3.9721    2.1279    1.9887 C      0
    2.4679    1.1550    2.0023 P      0
    2.8545   -0.6002    1.7730 C      0
    3.5805   -0.7890    0.4411 C      0
    3.7247   -1.1777    2.8894 C      0
    1.5143    1.4890    3.5058 C      0
    0.2641    0.6112    3.5618 C      0
    2.3388    1.3151    4.7823 C      0
    2.9193    4.3566    1.1106 C      0
    0.2270    2.7337    1.0395 H      0
    2.5055    1.4740   -0.9471 H      0
    0.8576    3.2599   -3.9919 H      0
    2.0060    2.3101   -3.0182 H      0
   -0.4588    4.9309   -1.2979 H      0
   -2.8879    3.9371   -2.8051 H      0
   -1.4060    4.3099   -3.6877 H      0
   -2.2042    5.5555   -2.7306 H      0
   -1.5901    3.2092    0.3783 H      0
   -3.0017    3.4392   -0.6493 H      0
   -2.2638    4.8194    0.1497 H      0
   -0.3353    0.3619   -2.5383 H      0
   -2.5134   -0.1243   -1.8894 H      0
   -2.2369    1.2383   -0.8077 H      0
   -3.1242    1.4701   -2.3092 H      0
   -2.0286    2.2916   -4.1917 H      0
   -1.7110    0.5948   -4.5293 H      0
   -0.4010    1.7686   -4.6122 H      0
    1.6938    4.9846   -4.4991 H      0
    2.2683    7.3282   -4.1022 H      0
    2.6583    8.0963   -1.8165 H      0
    2.7577    7.6850    0.4923 H      0
    3.2330    7.3385    2.8241 H      0
    3.9661    5.8318    4.6062 H      0
    4.3123    3.4583    4.1046 H      0
    4.5175    1.9742    1.0493 H      0
    4.6217    1.8365    2.8232 H      0
    1.9116   -1.1674    1.7341 H      0
    3.7939   -1.8411    0.2639 H      0
    4.5235   -0.2463    0.4355 H      0
    2.9737   -0.4226   -0.3843 H      0
    4.5371   -1.7674    2.4698 H      0
    3.1491   -1.8304    3.5388 H      0
    4.1606   -0.3843    3.4929 H      0
    1.1946    2.5418    3.4661 H      0
   -0.3554    0.7657    2.6808 H      0
   -0.3325    0.8453    4.4409 H      0
    0.5340   -0.4419    3.6059 H      0
    2.3013    0.2934    5.1469 H      0
    1.9582    1.9610    5.5707 H      0
    3.3802    1.5768    4.6071 H      0
  1  2  1
  2  3  1
  3  4  4
  4  5  4
  5  6  1
  6  7  1
  2  7  1
  7  8  1
  8  9  1
  8 10  1
  7 11  1
 11 12  1
 11 13  1
  5 14  4
 14 15  4
 15 16  4
 16 17  4
  4 17  4
 17 18  4
 18 19  4
 19 20  4
 20 21  4
 21 22  4
 22 23  4
 23 24  1
 24 25  1
  2 25  1
 25 26  1
 26 27  1
 26 28  1
 25 29  1
 29 30  1
 29 31  1
 23 32  4
  3 32  4
 19 32  4
  2 33  1
  2 34  1
  6 35  1
  6 36  1
  8 37  1
  9 38  1
  9 39  1
  9 40  1
 10 41  1
 10 42  1
 10 43  1
 11 44  1
 12 45  1
 12 46  1
 12 47  1
 13 48  1
 13 49  1
 13 50  1
 14 51  1
 15 52  1
 16 53  1
 18 54  1
 20 55  1
 21 56  1
 22 57  1
 24 58  1
 24 59  1
 26 60  1
 27 61  1
 27 62  1
 27 63  1
 28 64  1
 28 65  1
 28 66  1
 29 67  1
 30 68  1
 30 69  1
 30 70  1
 31 71  1
 31 72  1
 31 73  1
M  END
$$$$
