
     RDKit          3D

 28 28  0  0  0  0  0  0  0  0999 V2000
   -1.0468    2.9348    1.9583 C   0  0  0  0  0  0  0  0  0  0  0  0
   -0.2539    2.1895    0.8921 C   0  0  0  0  0  0  0  0  0  0  0  0
   -0.8979    0.8652    0.5115 C   0  0  0  0  0  0  0  0  0  0  0  0
   -0.4900   -0.2383    1.3798 C   0  0  0  0  0  0  0  0  0  0  0  0
    0.2842   -1.2821    1.0380 C   0  0  0  0  0  0  0  0  0  0  0  0
    0.8974   -1.5079   -0.2749 C   0  0  0  0  0  0  0  0  0  0  0  0
    1.8628   -0.6282   -0.7838 C   0  0  0  0  0  0  0  0  0  0  0  0
    2.4365   -0.8626   -2.0349 C   0  0  0  0  0  0  0  0  0  0  0  0
    2.0481   -1.9767   -2.7695 C   0  0  0  0  0  0  0  0  0  0  0  0
    2.5986   -2.1995   -3.9697 F   0  0  0  0  0  0  0  0  0  0  0  0
    1.0991   -2.8636   -2.2756 C   0  0  0  0  0  0  0  0  0  0  0  0
    0.5261   -2.6323   -1.0237 C   0  0  0  0  0  0  0  0  0  0  0  0
   -1.7557    0.7130   -0.5291 C   0  0  0  0  0  0  0  0  0  0  0  0
   -2.3837   -0.5358   -0.8186 C   0  0  0  0  0  0  0  0  0  0  0  0
   -2.9117   -1.5443   -1.0484 N   0  0  0  0  0  0  0  0  0  0  0  0
   -2.1155    1.8159   -1.3572 C   0  0  0  0  0  0  0  0  0  0  0  0
   -2.3996    2.7288   -2.0151 N   0  0  0  0  0  0  0  0  0  0  0  0
   -2.0635    3.1549    1.6165 H   0  0  0  0  0  0  0  0  0  0  0  0
   -1.1159    2.3549    2.8844 H   0  0  0  0  0  0  0  0  0  0  0  0
   -0.5575    3.8854    2.1940 H   0  0  0  0  0  0  0  0  0  0  0  0
   -0.1379    2.8372    0.0154 H   0  0  0  0  0  0  0  0  0  0  0  0
    0.7680    2.0191    1.2552 H   0  0  0  0  0  0  0  0  0  0  0  0
   -0.8416   -0.1756    2.4100 H   0  0  0  0  0  0  0  0  0  0  0  0
    0.4995   -2.0495    1.7798 H   0  0  0  0  0  0  0  0  0  0  0  0
    2.1804    0.2379   -0.2084 H   0  0  0  0  0  0  0  0  0  0  0  0
    3.1848   -0.1879   -2.4386 H   0  0  0  0  0  0  0  0  0  0  0  0
    0.8087   -3.7265   -2.8664 H   0  0  0  0  0  0  0  0  0  0  0  0
   -0.2231   -3.3260   -0.6462 H   0  0  0  0  0  0  0  0  0  0  0  0
  1  2  1  0
  2  3  1  0
  3  4  1  0
  4  5  2  3
  5  6  1  0
  6  7  2  0
  7  8  1  0
  8  9  2  0
  9 10  1  0
  9 11  1  0
 11 12  2  0
  3 13  2  3
 13 14  1  0
 14 15  3  0
 13 16  1  0
 16 17  3  0
 12  6  1  0
  1 18  1  0
  1 19  1  0
  1 20  1  0
  2 21  1  0
  2 22  1  0
  4 23  1  0
  5 24  1  0
  7 25  1  0
  8 26  1  0
 11 27  1  0
 12 28  1  0
M  END
