
     RDKit          3D

 53 57  0  0  0  0  0  0  0  0999 V2000
   -0.2063   -2.3047   -4.3357 I   0  0  0  0  0  0  0  0  0  0  0  0
   -0.1285   -1.3653   -2.8357 Cu  0  0  0  0  0  3  0  0  0  0  0  0
   -0.9481   -2.2410   -1.0753 S   0  0  0  0  0  3  0  0  0  0  0  0
   -1.3733   -0.8821   -0.1219 P   0  0  0  0  0  0  0  0  0  0  0  0
    0.0643   -0.0625    0.6075 C   0  0  0  0  0  0  0  0  0  0  0  0
    1.4374    0.1245   -0.5390 P   0  0  0  0  0  0  0  0  0  0  0  0
    0.9624    0.0528   -2.1994 S   0  0  0  0  0  3  0  0  0  0  0  0
    2.1565    1.7481   -0.2142 C   0  0  0  0  0  0  0  0  0  0  0  0
    2.5839    2.5028   -1.2686 C   0  0  0  0  0  0  0  0  0  0  0  0
    3.1280    3.7426   -0.9550 C   0  0  0  0  0  0  0  0  0  0  0  0
    3.2169    4.1555    0.3440 C   0  0  0  0  0  0  0  0  0  0  0  0
    2.7805    3.3839    1.4147 C   0  0  0  0  0  0  0  0  0  0  0  0
    2.2329    2.1372    1.1057 C   0  0  0  0  0  0  0  0  0  0  0  0
    2.7447   -1.0525   -0.2283 C   0  0  0  0  0  0  0  0  0  0  0  0
    3.6771   -0.8889    0.7723 C   0  0  0  0  0  0  0  0  0  0  0  0
    4.6989   -1.7457    1.0642 C   0  0  0  0  0  0  0  0  0  0  0  0
    4.8250   -2.8938    0.2909 C   0  0  0  0  0  0  0  0  0  0  0  0
    3.9196   -3.1017   -0.7187 C   0  0  0  0  0  0  0  0  0  0  0  0
    2.8963   -2.2107   -0.9855 C   0  0  0  0  0  0  0  0  0  0  0  0
   -2.3732    0.2525   -1.0825 C   0  0  0  0  0  0  0  0  0  0  0  0
   -3.5184   -0.2872   -1.6323 C   0  0  0  0  0  0  0  0  0  0  0  0
   -4.3735    0.5076   -2.4012 C   0  0  0  0  0  0  0  0  0  0  0  0
   -4.0673    1.8235   -2.6048 C   0  0  0  0  0  0  0  0  0  0  0  0
   -2.9197    2.3762   -2.0574 C   0  0  0  0  0  0  0  0  0  0  0  0
   -2.1090    1.5714   -1.3131 C   0  0  0  0  0  0  0  0  0  0  0  0
   -2.4072   -1.4007    1.2379 C   0  0  0  0  0  0  0  0  0  0  0  0
   -2.8871   -0.3091    1.9708 C   0  0  0  0  0  0  0  0  0  0  0  0
   -3.7081   -0.4763    3.0693 C   0  0  0  0  0  0  0  0  0  0  0  0
   -4.0400   -1.7771    3.4193 C   0  0  0  0  0  0  0  0  0  0  0  0
   -3.5752   -2.8545    2.7080 C   0  0  0  0  0  0  0  0  0  0  0  0
   -2.7531   -2.6743    1.6090 C   0  0  0  0  0  0  0  0  0  0  0  0
   -0.2974    0.9138    0.9882 H   0  0  0  0  0  0  0  0  0  0  0  0
    0.3775   -0.6516    1.4985 H   0  0  0  0  0  0  0  0  0  0  0  0
    2.4751    2.0976   -2.2643 H   0  0  0  0  0  0  0  0  0  0  0  0
    3.4673    4.3399   -1.8032 H   0  0  0  0  0  0  0  0  0  0  0  0
    3.6484    5.1307    0.5447 H   0  0  0  0  0  0  0  0  0  0  0  0
    2.8983    3.8073    2.4027 H   0  0  0  0  0  0  0  0  0  0  0  0
    1.9068    1.5695    1.9585 H   0  0  0  0  0  0  0  0  0  0  0  0
    3.6305   -0.0142    1.4078 H   0  0  0  0  0  0  0  0  0  0  0  0
    5.4119   -1.5802    1.8606 H   0  0  0  0  0  0  0  0  0  0  0  0
    5.6285   -3.5803    0.5105 H   0  0  0  0  0  0  0  0  0  0  0  0
    4.0683   -4.0127   -1.2868 H   0  0  0  0  0  0  0  0  0  0  0  0
    2.2060   -2.4114   -1.7881 H   0  0  0  0  0  0  0  0  0  0  0  0
   -3.8732   -1.3063   -1.5477 H   0  0  0  0  0  0  0  0  0  0  0  0
   -5.2958    0.1695   -2.8729 H   0  0  0  0  0  0  0  0  0  0  0  0
   -4.7041    2.4756   -3.1955 H   0  0  0  0  0  0  0  0  0  0  0  0
   -2.6879    3.4013   -2.2203 H   0  0  0  0  0  0  0  0  0  0  0  0
   -1.2022    1.9517   -0.8637 H   0  0  0  0  0  0  0  0  0  0  0  0
   -2.6784    0.7490    1.7690 H   0  0  0  0  0  0  0  0  0  0  0  0
   -4.0989    0.3393    3.6605 H   0  0  0  0  0  0  0  0  0  0  0  0
   -4.6762   -1.9460    4.2676 H   0  0  0  0  0  0  0  0  0  0  0  0
   -3.8124   -3.8718    2.9514 H   0  0  0  0  0  0  0  0  0  0  0  0
   -2.3286   -3.4212    0.9774 H   0  0  0  0  0  0  0  0  0  0  0  0
  1  2  1  0
  2  3  1  0
  3  4  2  0
  4  5  1  0
  5  6  1  0
  6  7  2  0
  6  8  1  0
  8  9  2  0
  9 10  1  0
 10 11  2  0
 11 12  1  0
 12 13  2  0
  6 14  1  0
 14 15  2  0
 15 16  1  0
 16 17  2  0
 17 18  1  0
 18 19  2  0
  4 20  1  0
 20 21  2  0
 21 22  1  0
 22 23  2  0
 23 24  1  0
 24 25  2  0
  4 26  1  0
 26 27  2  0
 27 28  1  0
 28 29  2  0
 29 30  1  0
 30 31  2  0
  7  2  1  0
 13  8  1  0
 19 14  1  0
 25 20  1  0
 31 26  1  0
  5 32  1  0
  5 33  1  0
  9 34  1  0
 10 35  1  0
 11 36  1  0
 12 37  1  0
 13 38  1  0
 15 39  1  0
 16 40  1  0
 17 41  1  0
 18 42  1  0
 19 43  1  0
 21 44  1  0
 22 45  1  0
 23 46  1  0
 24 47  1  0
 25 48  1  0
 27 49  1  0
 28 50  1  0
 29 51  1  0
 30 52  1  0
 31 53  1  0
M  RAD  2   3   2   7   2
M  END
