
 OpenBabel09252516343D

 55 59  0  0  0  0  0  0  0  0999 V2000
    1.0675    0.0102    0.0731 H   0  0  0  0  0  0  0  0  0  0  0  0
    2.1375    0.0102    0.0731 C   0  0  0  0  0  3  0  0  0  0  0  0
    2.6497   -1.3727   -0.3360 C   0  0  0  0  0  3  0  0  0  0  0  0
    2.2606   -2.1101    0.3346 H   0  0  0  0  0  0  0  0  0  0  0  0
    2.2195   -1.6648   -1.6672 C   0  0  0  0  0  3  0  0  0  0  0  0
    2.5598   -2.6466   -1.9226 H   0  0  0  0  0  0  0  0  0  0  0  0
    2.7069   -0.7508   -2.6513 C   0  0  0  0  0  3  0  0  0  0  0  0
    4.5368   -0.7551   -2.6347 P   0  0  0  0  0  0  0  0  0  0  0  0
    5.4440   -2.2713   -2.1583 C   0  0  0  0  0  3  0  0  0  0  0  0
    6.6422   -2.4426   -1.2217 C   0  0  0  0  0  3  0  0  0  0  0  0
    7.5488   -2.3065   -1.7735 H   0  0  0  0  0  0  0  0  0  0  0  0
    6.5710   -1.4716   -0.1754 C   0  0  0  0  0  3  0  0  0  0  0  0
    7.4321   -1.5868    0.4492 H   0  0  0  0  0  0  0  0  0  0  0  0
    5.4050   -1.5810    0.6431 C   0  0  0  0  0  3  0  0  0  0  0  0
    5.3732   -2.5524    1.0907 H   0  0  0  0  0  0  0  0  0  0  0  0
    4.1567   -1.3749   -0.2181 C   0  0  0  0  0  3  0  0  0  0  0  0
    3.2814   -1.4982    0.3847 H   0  0  0  0  0  0  0  0  0  0  0  0
    4.1502   -2.4082   -1.3490 C   0  0  0  0  0  3  0  0  0  0  0  0
    4.0889   -3.3928   -0.9347 H   0  0  0  0  0  0  0  0  0  0  0  0
    4.5183   -0.3571   -1.3480 S   0  0  0  0  0  0  0  0  0  0  0  0
    3.3327   -0.2172   -0.6839 Cu  0  0  0  0  0  0  0  0  0  0  0  0
    3.2259    1.2294    1.6053 I   0  0  0  0  0  0  0  0  0  0  0  0
    2.1824   -0.8153   -1.1806 S   0  0  0  0  0  0  0  0  0  0  0  0
    2.1149   -1.2163   -2.4303 P   0  0  0  0  0  0  0  0  0  0  0  0
    0.9524   -1.2194   -3.8437 C   0  0  0  0  0  3  0  0  0  0  0  0
    1.0785    0.0974   -4.6136 C   0  0  0  0  0  3  0  0  0  0  0  0
    0.8858    0.9167   -3.9530 H   0  0  0  0  0  0  0  0  0  0  0  0
    2.4005    0.2136   -5.1440 C   0  0  0  0  0  3  0  0  0  0  0  0
    2.4780    1.1530   -5.6505 H   0  0  0  0  0  0  0  0  0  0  0  0
    2.7532   -0.8220   -6.0630 C   0  0  0  0  0  3  0  0  0  0  0  0
    2.0663   -0.8201   -6.8834 H   0  0  0  0  0  0  0  0  0  0  0  0
    2.6948   -2.1759   -5.3517 C   0  0  0  0  0  3  0  0  0  0  0  0
    2.9174   -2.9565   -6.0489 H   0  0  0  0  0  0  0  0  0  0  0  0
    1.2883   -2.3837   -4.7814 C   0  0  0  0  0  3  0  0  0  0  0  0
    0.5782   -2.4163   -5.5812 H   0  0  0  0  0  0  0  0  0  0  0  0
    2.8324   -2.7899   -1.8323 C   0  0  0  0  0  3  0  0  0  0  0  0
    3.3369   -3.9873   -2.6411 C   0  0  0  0  0  3  0  0  0  0  0  0
    2.5045   -4.5816   -2.9556 H   0  0  0  0  0  0  0  0  0  0  0  0
    4.0495   -3.5203   -3.7885 C   0  0  0  0  0  3  0  0  0  0  0  0
    4.3659   -4.3700   -4.3565 H   0  0  0  0  0  0  0  0  0  0  0  0
    5.2011   -2.7332   -3.4791 C   0  0  0  0  0  3  0  0  0  0  0  0
    5.8769   -3.3092   -2.8820 H   0  0  0  0  0  0  0  0  0  0  0  0
    4.7721   -1.4851   -2.7042 C   0  0  0  0  0  3  0  0  0  0  0  0
    5.6371   -0.9159   -2.4349 H   0  0  0  0  0  0  0  0  0  0  0  0
    4.0248   -1.9126   -1.4371 C   0  0  0  0  0  3  0  0  0  0  0  0
    4.6835   -2.4675   -0.8022 H   0  0  0  0  0  0  0  0  0  0  0  0
    3.2672   -1.0512   -3.3785 C   0  0  0  0  0  0  0  0  0  0  0  0
    3.0559   -0.2312   -4.0327 H   0  0  0  0  0  0  0  0  0  0  0  0
    3.3920   -1.9545   -3.9383 H   0  0  0  0  0  0  0  0  0  0  0  0
    2.1970    0.6573   -2.3358 C   0  0  0  0  0  3  0  0  0  0  0  0
    2.5953    1.3502   -3.0473 H   0  0  0  0  0  0  0  0  0  0  0  0
    2.6503    1.0519   -0.9267 C   0  0  0  0  0  3  0  0  0  0  0  0
    3.7191    1.0877   -0.8907 H   0  0  0  0  0  0  0  0  0  0  0  0
    5.2524   -1.2637   -0.6487 H   0  0  0  0  0  0  0  0  0  0  0  0
    1.1742    0.0808   -1.0067 H   0  0  0  0  0  0  0  0  0  0  0  0
  1  2  1  0  0  0  0
  2  3  1  0  0  0  0
  2 52  1  0  0  0  0
  3  4  1  0  0  0  0
  3  5  1  0  0  0  0
  5  6  1  0  0  0  0
  5  7  1  0  0  0  0
  7  8  1  0  0  0  0
  7 50  1  0  0  0  0
  8  9  1  0  0  0  0
  8 20  2  0  0  0  0
  8 47  1  0  0  0  0
  9 10  1  0  0  0  0
  9 18  1  0  0  0  0
 10 11  1  0  0  0  0
 10 12  1  0  0  0  0
 12 13  1  0  0  0  0
 12 14  1  0  0  0  0
 14 15  1  0  0  0  0
 14 16  1  0  0  0  0
 16 17  1  0  0  0  0
 16 18  1  0  0  0  0
 18 19  1  0  0  0  0
 20 21  1  0  0  0  0
 20 54  1  0  0  0  0
 21 22  1  0  0  0  0
 21 23  1  0  0  0  0
 23 24  2  0  0  0  0
 23 55  1  0  0  0  0
 24 25  1  0  0  0  0
 24 36  1  0  0  0  0
 24 47  1  0  0  0  0
 25 26  1  0  0  0  0
 25 34  1  0  0  0  0
 26 27  1  0  0  0  0
 26 28  1  0  0  0  0
 28 29  1  0  0  0  0
 28 30  1  0  0  0  0
 30 31  1  0  0  0  0
 30 32  1  0  0  0  0
 32 33  1  0  0  0  0
 32 34  1  0  0  0  0
 34 35  1  0  0  0  0
 36 37  1  0  0  0  0
 36 45  1  0  0  0  0
 37 38  1  0  0  0  0
 37 39  1  0  0  0  0
 39 40  1  0  0  0  0
 39 41  1  0  0  0  0
 41 42  1  0  0  0  0
 41 43  1  0  0  0  0
 43 44  1  0  0  0  0
 43 45  1  0  0  0  0
 45 46  1  0  0  0  0
 47 48  1  0  0  0  0
 47 49  1  0  0  0  0
 50 51  1  0  0  0  0
 50 52  1  0  0  0  0
 52 53  1  0  0  0  0
M  END
$$$$
