
     RDKit          3D

 46 54  0  0  0  0  0  0  0  0999 V2000
   -1.1450    0.1203   -2.8340 Cl  0  0  0  0  0  0  0  0  0  0  0  0
   -0.4926   -0.2938   -0.8090 Ir  0  0  0  0  0  9  0  0  0  0  0  0
    0.4583   -1.7158   -1.7765 C   0  0  0  0  0  0  0  0  0  0  0  0
    1.0482   -1.2710   -0.7829 C   0  0  0  0  0  0  0  0  0  0  0  0
    2.0868   -1.0369    0.2904 C   0  0  0  0  0  0  0  0  0  0  0  0
    3.0591   -1.6338    1.0468 C   0  0  0  0  0  0  0  0  0  0  0  0
    4.0373   -0.7914    1.5242 C   0  0  0  0  0  0  0  0  0  0  0  0
    4.0613    0.5601    1.2683 C   0  0  0  0  0  0  0  0  0  0  0  0
    3.0424    1.0715    0.5137 C   0  0  0  0  0  0  0  0  0  0  0  0
    3.2886    2.3960    0.1114 C   0  0  0  0  0  0  0  0  0  0  0  0
    2.4409    3.0043   -0.8357 C   0  0  0  0  0  0  0  0  0  0  0  0
    1.3676    2.2249   -1.3155 C   0  0  0  0  0  0  0  0  0  0  0  0
    1.0362    0.9101   -0.9697 C   0  0  0  0  0  0  0  0  0  0  0  0
    1.9320    0.3252   -0.0361 C   0  0  0  0  0  0  0  0  0  0  0  0
   -2.2130   -0.0569   -1.0417 C   0  0  0  0  0  0  0  0  0  0  0  0
   -3.4981    0.0120   -0.4034 C   0  0  0  0  0  0  0  0  0  0  0  0
   -1.4444    0.8588   -0.3439 C   0  0  0  0  0  0  0  0  0  0  0  0
   -1.7852    2.2752   -0.4072 C   0  0  0  0  0  0  0  0  0  0  0  0
   -0.9438    0.1559    0.7089 C   0  0  0  0  0  0  0  0  0  0  0  0
   -0.5190    0.9077    1.8621 C   0  0  0  0  0  0  0  0  0  0  0  0
   -1.1618   -1.1616    0.5236 C   0  0  0  0  0  0  0  0  0  0  0  0
   -1.2189   -2.2937    1.3349 C   0  0  0  0  0  0  0  0  0  0  0  0
   -1.7620   -1.3127   -0.7212 C   0  0  0  0  0  0  0  0  0  0  0  0
   -2.3580   -2.5067   -1.1933 C   0  0  0  0  0  0  0  0  0  0  0  0
    0.7362   -2.5295   -2.5355 H   0  0  0  0  0  0  0  0  0  0  0  0
    2.8658   -2.6707    1.1263 H   0  0  0  0  0  0  0  0  0  0  0  0
    4.7736   -1.3147    2.1161 H   0  0  0  0  0  0  0  0  0  0  0  0
    4.8583    1.1643    1.6576 H   0  0  0  0  0  0  0  0  0  0  0  0
    4.0469    3.0686    0.4098 H   0  0  0  0  0  0  0  0  0  0  0  0
    2.3983    3.9613   -1.3099 H   0  0  0  0  0  0  0  0  0  0  0  0
    0.6619    2.5886   -2.0362 H   0  0  0  0  0  0  0  0  0  0  0  0
   -3.5936   -0.0694    0.6806 H   0  0  0  0  0  0  0  0  0  0  0  0
   -4.2116   -0.7327   -0.8657 H   0  0  0  0  0  0  0  0  0  0  0  0
   -3.9738    0.9917   -0.6997 H   0  0  0  0  0  0  0  0  0  0  0  0
   -1.0153    2.9464    0.0106 H   0  0  0  0  0  0  0  0  0  0  0  0
   -2.7579    2.3837    0.0548 H   0  0  0  0  0  0  0  0  0  0  0  0
   -1.9145    2.6323   -1.4702 H   0  0  0  0  0  0  0  0  0  0  0  0
   -0.3063    1.9774    1.6601 H   0  0  0  0  0  0  0  0  0  0  0  0
    0.4380    0.4942    2.2654 H   0  0  0  0  0  0  0  0  0  0  0  0
   -1.3244    0.8788    2.6230 H   0  0  0  0  0  0  0  0  0  0  0  0
   -0.4533   -2.1886    2.1653 H   0  0  0  0  0  0  0  0  0  0  0  0
   -2.2319   -2.5184    1.7234 H   0  0  0  0  0  0  0  0  0  0  0  0
   -0.8651   -3.2485    0.8400 H   0  0  0  0  0  0  0  0  0  0  0  0
   -2.4483   -3.2568   -0.4151 H   0  0  0  0  0  0  0  0  0  0  0  0
   -3.3027   -2.3146   -1.7356 H   0  0  0  0  0  0  0  0  0  0  0  0
   -1.6973   -2.9914   -1.9793 H   0  0  0  0  0  0  0  0  0  0  0  0
  1  2  1  0
  2  3  1  0
  3  4  2  0
  4  5  1  0
  5  6  2  0
  6  7  1  0
  7  8  2  0
  8  9  1  0
  9 10  2  0
 10 11  1  0
 11 12  2  0
 12 13  1  0
 13 14  2  0
  2 15  1  0
 15 16  1  0
 15 17  1  0
 17 18  1  0
 17 19  1  0
 19 20  1  0
 19 21  1  0
 21 22  1  0
 21 23  1  0
 23 24  1  0
  4  2  1  0
 14  5  1  0
 23 15  1  0
 13  2  1  0
 17  2  1  0
 19  2  1  0
 21  2  1  0
 23  2  1  0
 14  9  1  0
  3 25  1  0
  6 26  1  0
  7 27  1  0
  8 28  1  0
 10 29  1  0
 11 30  1  0
 12 31  1  0
 16 32  1  0
 16 33  1  0
 16 34  1  0
 18 35  1  0
 18 36  1  0
 18 37  1  0
 20 38  1  0
 20 39  1  0
 20 40  1  0
 22 41  1  0
 22 42  1  0
 22 43  1  0
 24 44  1  0
 24 45  1  0
 24 46  1  0
M  END
