
 OpenBabel09252516253D

 53 52  0  0  0  0  0  0  0  0999 V2000
    0.9157    0.0371    0.0389 C   0  0  0  0  0  0  0  0  0  0  0  0
    0.1890   -0.0202    2.0934 Rh  0  0  0  0  0  0  0  0  0  0  0  0
    2.4834    1.3616    2.9435 I   0  0  0  0  0  0  0  0  0  0  0  0
   -1.1356    2.4254    1.6931 I   0  0  0  0  0  0  0  0  0  0  0  0
   -0.5377   -0.0776    4.1479 C   0  0  0  0  0  0  0  0  0  0  0  0
   -0.9437   -0.1096    5.2959 O   0  0  0  0  0  0  0  0  0  0  0  0
   -1.8441   -1.2447    1.3401 P   0  0  0  0  0  4  0  0  0  0  0  0
   -1.4374   -2.2562   -0.1297 C   0  0  0  0  0  0  0  0  0  0  0  0
   -0.3482   -3.2543    0.2277 C   0  0  0  0  0  0  0  0  0  0  0  0
   -2.4335   -2.3348    2.6867 C   0  0  0  0  0  0  0  0  0  0  0  0
   -2.7713   -1.4946    3.9075 C   0  0  0  0  0  0  0  0  0  0  0  0
   -3.1555   -0.0430    0.9098 C   0  0  0  0  0  0  0  0  0  0  0  0
   -3.4932    0.7971    2.1307 C   0  0  0  0  0  0  0  0  0  0  0  0
    1.3628   -2.1874    2.4481 P   0  0  0  0  0  4  0  0  0  0  0  0
    0.7179   -3.4303    1.2699 C   0  0  0  0  0  0  0  0  0  0  0  0
    0.9568   -2.9517   -0.1528 C   0  0  0  0  0  0  0  0  0  0  0  0
    3.1579   -1.9608    2.1740 C   0  0  0  0  0  0  0  0  0  0  0  0
    3.6936   -0.9284    3.1525 C   0  0  0  0  0  0  0  0  0  0  0  0
    1.0752   -2.7636    4.1610 C   0  0  0  0  0  0  0  0  0  0  0  0
    1.6109   -1.7312    5.1396 C   0  0  0  0  0  0  0  0  0  0  0  0
    0.5590    0.9245   -0.4410 H   0  0  0  0  0  0  0  0  0  0  0  0
    0.5590   -0.8221   -0.4897 H   0  0  0  0  0  0  0  0  0  0  0  0
    1.9857    0.0371    0.0389 H   0  0  0  0  0  0  0  0  0  0  0  0
   -2.3111   -2.7823   -0.4534 H   0  0  0  0  0  0  0  0  0  0  0  0
   -1.0927   -1.6188   -0.9170 H   0  0  0  0  0  0  0  0  0  0  0  0
   -0.6928   -3.8916    1.0150 H   0  0  0  0  0  0  0  0  0  0  0  0
   -0.1104   -3.8457   -0.6317 H   0  0  0  0  0  0  0  0  0  0  0  0
    0.5255   -2.7281    0.5514 H   0  0  0  0  0  0  0  0  0  0  0  0
   -3.3072   -2.8609    2.3630 H   0  0  0  0  0  0  0  0  0  0  0  0
   -1.6668   -3.0374    2.9382 H   0  0  0  0  0  0  0  0  0  0  0  0
   -3.5381   -0.7920    3.6559 H   0  0  0  0  0  0  0  0  0  0  0  0
   -3.1160   -2.1320    4.6948 H   0  0  0  0  0  0  0  0  0  0  0  0
   -1.8977   -0.9685    4.2312 H   0  0  0  0  0  0  0  0  0  0  0  0
   -2.8108    0.5944    0.1225 H   0  0  0  0  0  0  0  0  0  0  0  0
   -4.0291   -0.5692    0.5862 H   0  0  0  0  0  0  0  0  0  0  0  0
   -2.6196    1.3233    2.4544 H   0  0  0  0  0  0  0  0  0  0  0  0
   -4.2600    1.4997    1.8791 H   0  0  0  0  0  0  0  0  0  0  0  0
   -3.8379    0.1597    2.9180 H   0  0  0  0  0  0  0  0  0  0  0  0
    1.2223   -4.3616    1.4223 H   0  0  0  0  0  0  0  0  0  0  0  0
   -0.3317   -3.5628    1.4302 H   0  0  0  0  0  0  0  0  0  0  0  0
    2.0064   -2.8192   -0.3131 H   0  0  0  0  0  0  0  0  0  0  0  0
    0.5797   -3.6785   -0.8417 H   0  0  0  0  0  0  0  0  0  0  0  0
    0.4524   -2.0204   -0.3052 H   0  0  0  0  0  0  0  0  0  0  0  0
    3.6623   -2.8921    2.3264 H   0  0  0  0  0  0  0  0  0  0  0  0
    3.3260   -1.6239    1.1724 H   0  0  0  0  0  0  0  0  0  0  0  0
    3.5254   -1.2653    4.1541 H   0  0  0  0  0  0  0  0  0  0  0  0
    4.7432   -0.7959    2.9922 H   0  0  0  0  0  0  0  0  0  0  0  0
    3.1892    0.0029    3.0001 H   0  0  0  0  0  0  0  0  0  0  0  0
    0.0256   -2.8961    4.3213 H   0  0  0  0  0  0  0  0  0  0  0  0
    1.5796   -3.6949    4.3134 H   0  0  0  0  0  0  0  0  0  0  0  0
    1.1065   -0.8000    4.9871 H   0  0  0  0  0  0  0  0  0  0  0  0
    1.4427   -2.0682    6.1411 H   0  0  0  0  0  0  0  0  0  0  0  0
    2.6605   -1.5988    4.9793 H   0  0  0  0  0  0  0  0  0  0  0  0
  1  2  1  0  0  0  0
  1 21  1  0  0  0  0
  1 22  1  0  0  0  0
  1 23  1  0  0  0  0
  2  3  1  0  0  0  0
  2  4  1  0  0  0  0
  2  5  1  0  0  0  0
  2  7  1  0  0  0  0
  2 14  1  0  0  0  0
  5  6  3  0  0  0  0
  7  8  1  0  0  0  0
  7 10  1  0  0  0  0
  7 12  1  0  0  0  0
  8  9  1  0  0  0  0
  8 24  1  0  0  0  0
  8 25  1  0  0  0  0
  9 26  1  0  0  0  0
  9 27  1  0  0  0  0
  9 28  1  0  0  0  0
 10 11  1  0  0  0  0
 10 29  1  0  0  0  0
 10 30  1  0  0  0  0
 11 31  1  0  0  0  0
 11 32  1  0  0  0  0
 11 33  1  0  0  0  0
 12 13  1  0  0  0  0
 12 34  1  0  0  0  0
 12 35  1  0  0  0  0
 13 36  1  0  0  0  0
 13 37  1  0  0  0  0
 13 38  1  0  0  0  0
 14 15  1  0  0  0  0
 14 17  1  0  0  0  0
 14 19  1  0  0  0  0
 15 16  1  0  0  0  0
 15 39  1  0  0  0  0
 15 40  1  0  0  0  0
 16 41  1  0  0  0  0
 16 42  1  0  0  0  0
 16 43  1  0  0  0  0
 17 18  1  0  0  0  0
 17 44  1  0  0  0  0
 17 45  1  0  0  0  0
 18 46  1  0  0  0  0
 18 47  1  0  0  0  0
 18 48  1  0  0  0  0
 19 20  1  0  0  0  0
 19 49  1  0  0  0  0
 19 50  1  0  0  0  0
 20 51  1  0  0  0  0
 20 52  1  0  0  0  0
 20 53  1  0  0  0  0
M  END
$$$$
