
  --CCDC--092525    3D                              

 62 63  0  0  0  0  0  0  0  0999 V2000
   -0.0360    0.0972   -0.0591 C      0
    1.9024    0.0224   -0.6910 Pt     0
    2.2127    1.7985    0.2682 C      0
    3.8609    0.0708   -1.2595 C      0
    1.5921   -1.7533   -1.6500 N      0
    0.4966   -2.0116   -2.4123 N      0
    0.6709   -3.2507   -2.8234 C      0
   -0.3763   -3.9221   -3.6536 C      0
   -1.3214   -4.7884   -2.8343 C      0
   -0.7010   -5.6370   -1.7472 C      0
    0.4060   -6.6064   -2.2041 C      0
    1.7866   -6.2416   -1.7219 C      0
    2.5220   -5.1032   -2.4122 C      0
    1.8837   -3.7413   -2.3025 C      0
    2.4547   -2.8037   -1.5713 N      0
    2.4936   -1.2682    1.2624 P      0
    1.2586   -2.5639    1.5219 C      0
    2.5455   -0.2513    2.7581 C      0
    4.1144   -2.0447    1.0541 C      0
    1.2931    1.1655   -2.7313 P      0
   -0.4220    0.8444   -3.2150 C      0
    2.3916    0.6494   -4.0722 C      0
    1.4372    2.9584   -2.5387 C      0
   -0.5129    0.9926   -0.4520 H      0
   -0.5670   -0.7825   -0.4163 H      0
   -0.0636    0.1199    1.0282 H      0
    1.2581    2.2141    0.5845 H      0
    2.7135    2.4950   -0.3987 H      0
    2.8489    1.6459    1.1349 H      0
    4.1120   -0.8568   -1.7699 H      0
    4.0216    0.9108   -1.9323 H      0
    4.4920    0.1854   -0.3808 H      0
    0.1177   -4.5510   -4.3928 H      0
   -0.9604   -3.1558   -4.1612 H      0
   -1.8339   -5.4586   -3.5229 H      0
   -2.0475   -4.1281   -2.3624 H      0
   -1.4941   -6.2268   -1.2900 H      0
   -0.2724   -4.9667   -1.0035 H      0
    0.4179   -6.6219   -3.2929 H      0
    0.1652   -7.6002   -1.8296 H      0
    2.4067   -7.1313   -1.8212 H      0
    1.6991   -5.9758   -0.6694 H      0
    2.6005   -5.3501   -3.4699 H      0
    3.5192   -5.0397   -1.9792 H      0
    1.2057   -3.2267    0.6610 H      0
    0.2731   -2.1301    1.6773 H      0
    1.5060   -3.1624    2.3962 H      0
    1.6145    0.2966    2.8866 H      0
    3.3598    0.4682    2.7092 H      0
    2.6991   -0.8702    3.6394 H      0
    4.1128   -2.7362    0.2152 H      0
    4.3909   -2.6007    1.9474 H      0
    4.8821   -1.2956    0.8741 H      0
   -0.7635    1.6023   -3.9171 H      0
   -1.0785    0.8702   -2.3476 H      0
   -0.5340   -0.1215   -3.6987 H      0
    2.3133   -0.4220   -4.2448 H      0
    3.4274    0.8793   -3.8307 H      0
    2.1373    1.1625   -4.9973 H      0
    0.7722    3.3156   -1.7549 H      0
    1.1740    3.4670   -3.4640 H      0
    2.4547    3.2386   -2.2744 H      0
  1  2  1
  2  3  1
  2  4  1
  2  5  1
  5  6  1
  6  7  2
  7  8  1
  8  9  1
  9 10  1
 10 11  1
 11 12  1
 12 13  1
 13 14  1
  7 14  1
 14 15  2
  5 15  1
  2 16  1
 16 17  1
 16 18  1
 16 19  1
  2 20  1
 20 21  1
 20 22  1
 20 23  1
  1 24  1
  1 25  1
  1 26  1
  3 27  1
  3 28  1
  3 29  1
  4 30  1
  4 31  1
  4 32  1
  8 33  1
  8 34  1
  9 35  1
  9 36  1
 10 37  1
 10 38  1
 11 39  1
 11 40  1
 12 41  1
 12 42  1
 13 43  1
 13 44  1
 17 45  1
 17 46  1
 17 47  1
 18 48  1
 18 49  1
 18 50  1
 19 51  1
 19 52  1
 19 53  1
 21 54  1
 21 55  1
 21 56  1
 22 57  1
 22 58  1
 22 59  1
 23 60  1
 23 61  1
 23 62  1
M  END
$$$$
