
  --CCDC--092525    3D                              

 24 29  0  0  0  0  0  0  0  0999 V2000
    1.6968   -1.2926    0.1672 H      0
    1.4401   -0.4090   -0.4142 C      0
    2.1497    0.3764   -0.1620 H      0
    1.5602   -0.6494   -1.4679 H      0
    0.0034    0.0462   -0.1111 C      0
   -1.1594    0.4508   -0.9800 C      0
   -0.8481    0.4519   -2.0806 H      0
   -2.4313    0.1895   -0.1906 C      0
   -3.3023    0.0717   -0.9209 H      0
   -2.0089   -0.5306    1.1328 C      0
   -2.5240   -1.5335    1.2699 H      0
   -0.4735   -0.6250    1.1277 C      0
   -0.0513   -1.6766    1.2113 H      0
   -1.3448   -1.6810   -0.5214 Mn     0
    0.3406   -3.1359   -1.0607 C      0
    1.1802   -3.8607   -1.3294 O      0
   -1.4055   -2.2778   -2.7301 C      0
   -1.4341   -2.5722   -3.8316 O      0
   -2.6265   -3.0746   -0.8375 H      0
   -2.1212   -4.2040    0.1327 Si     0
   -0.5247   -4.7096    1.3450 Cl     0
   -3.0420   -4.0174    1.9739 Cl     0
   -1.1913   -5.6153   -1.0574 Cl     0
   -3.2571   -5.1763   -0.0557 H      0
  1  2  1
  2  3  1
  2  4  1
  2  5  1
  5  6  4
  6  7  1
  6  8  4
  8  9  1
  8 10  4
 10 11  1
 10 12  4
  5 12  4
 12 13  1
 12 14  1
  8 14  1
 10 14  1
  6 14  1
  5 14  1
 14 15  1
 15 16  3
 14 17  1
 17 18  3
 14 19  1
 19 20  1
 14 20  1
 20 21  1
 20 22  1
 20 23  1
 20 24  1
M  END
$$$$
