
  --CCDC--081225    3D                              

114121  0  0  0  0  0  0  0  0999 V2000
    0.3712   -0.2992   -1.1220 C      0
    1.5245   -0.2398   -0.3211 O      0
    2.2954   -1.4101   -0.3331 C      0
    3.1601   -1.2861   -1.5441 C      0
    3.9691   -0.1341   -1.3986 O      0
    5.2612   -0.5408   -1.0333 C      0
    2.9289    2.0093   -0.1996 Eu     0
    3.1757    4.6103    0.3040 N      0
    3.2994    5.9148    0.5565 C      0
    3.4619    7.5844    0.8893 S      0
    0.5346    2.6659    0.7277 N      0
    0.1657    2.6108    2.1279 C      0
   -0.3331    3.7904    2.7455 C      0
   -0.9273    3.6891    4.0064 C      0
   -0.9692    2.5035    4.7053 C      0
   -0.3462    1.4004    4.1702 C      0
    0.2745    1.4344    2.9222 C      0
    1.0130    0.1615    2.5529 C      0
    0.0194   -0.9809    2.3390 C      0
    2.0205   -0.2825    3.6144 C      0
   -0.2041    5.1985    2.1724 C      0
   -1.5023    6.0098    2.2257 C      0
    0.8375    5.9657    2.9834 C      0
   -0.3234    3.1504   -0.3377 C      0
    0.1106    3.3259   -1.6802 C      0
    1.4431    3.0133   -2.1431 N      0
    1.9418    3.2860   -3.4624 C      0
    2.3388    2.2369   -4.3164 C      0
    2.7063    2.5241   -5.6273 C      0
    2.7336    3.8194   -6.0961 C      0
    2.4182    4.8530   -5.2380 C      0
    2.0336    4.6228   -3.9150 C      0
    1.7837    5.8403   -3.0382 C      0
    0.6915    6.7439   -3.6118 C      0
    3.0726    6.6499   -2.9124 C      0
    2.4178    0.7865   -3.9023 C      0
    1.3901   -0.0732   -4.6361 C      0
    3.8155    0.2468   -4.2081 C      0
   -0.9869    3.9099   -2.4652 C      0
   -1.2141    4.3297   -3.7584 C      0
   -2.4343    4.8928   -4.1129 C      0
   -3.4557    5.0383   -3.2179 C      0
   -3.2914    4.5994   -1.8846 C      0
   -4.2659    4.6619   -0.8644 C      0
   -3.9797    4.1644    0.3744 C      0
   -2.7433    3.6097    0.6861 C      0
   -1.7315    3.5762   -0.2494 C      0
   -2.0400    4.0470   -1.5411 C      0
    5.4842    2.6261   -0.4976 O      0
    6.0981    2.7763   -1.7536 C      0
    6.2769    2.1916    0.5943 C      0
    5.5372    2.4238    1.8966 C      0
    4.3725    1.6172    1.9829 O      0
    4.6912    0.3066    2.3672 C      0
    0.6224   -0.5000   -2.1592 H      0
   -0.1698    0.6443   -1.0872 H      0
   -0.2985   -1.0844   -0.7781 H      0
    1.6569   -2.3004   -0.3845 H      0
    2.9025   -1.4883    0.5768 H      0
    3.7867   -2.1795   -1.6569 H      0
    2.5316   -1.2314   -2.4385 H      0
    5.5828   -1.3891   -1.6333 H      0
    5.2889   -0.8424    0.0108 H      0
    5.9810    0.2569   -1.1744 H      0
   -1.3554    4.5653    4.4770 H      0
   -1.4606    2.4453    5.6724 H      0
   -0.3499    0.4804    4.7428 H      0
    1.5915    0.3662    1.6478 H      0
   -0.7514   -0.6928    1.6284 H      0
   -0.4700   -1.2481    3.2728 H      0
    0.5230   -1.8662    1.9564 H      0
    2.6697   -1.0609    3.2176 H      0
    1.5196   -0.6863    4.4908 H      0
    2.6464    0.5498    3.9293 H      0
    0.1354    5.1563    1.1294 H      0
   -1.4135    6.8444    2.9176 H      0
   -2.3469    5.4038    2.5415 H      0
   -1.7341    6.4230    1.2463 H      0
    0.5153    6.0681    4.0173 H      0
    0.9897    6.9629    2.5761 H      0
    1.7904    5.4429    2.9797 H      0
    2.9782    1.7119   -6.2934 H      0
    3.0129    4.0240   -7.1240 H      0
    2.4876    5.8686   -5.6108 H      0
    1.4747    5.5162   -2.0349 H      0
    0.2855    6.3278   -4.5312 H      0
    1.0813    7.7355   -3.8313 H      0
   -0.1239    6.8593   -2.9009 H      0
    3.4074    6.9993   -3.8869 H      0
    3.8658    6.0422   -2.4819 H      0
    2.9243    7.5174   -2.2728 H      0
    2.2253    0.7322   -2.8223 H      0
    1.5595   -0.0450   -5.7105 H      0
    0.3791    0.2776   -4.4396 H      0
    1.4575   -1.1093   -4.3097 H      0
    4.0610    0.3720   -5.2601 H      0
    3.8813   -0.8129   -3.9715 H      0
    4.5666    0.7711   -3.6204 H      0
   -0.4352    4.2241   -4.5054 H      0
   -2.5806    5.2274   -5.1341 H      0
   -4.3927    5.4863   -3.5311 H      0
   -5.2392    5.0955   -1.0662 H      0
   -4.7449    4.2027    1.1429 H      0
   -2.5783    3.2054    1.6787 H      0
    5.6201    2.1692   -2.5175 H      0
    7.1474    2.4929   -1.7051 H      0
    6.0471    3.8129   -2.0815 H      0
    6.5359    1.1307    0.4998 H      0
    7.2248    2.7441    0.5982 H      0
    6.1987    2.2088    2.7444 H      0
    5.2638    3.4829    1.9765 H      0
    4.0147   -0.4103    1.9079 H      0
    5.7060    0.0563    2.0662 H      0
    4.6273    0.1951    3.4480 H      0
  1  2  1
  2  3  1
  3  4  1
  4  5  1
  5  6  1
  5  7  1
  2  7  1
  7  8  1
  8  9  4
  9 10  4
  7 11  1
 11 12  1
 12 13  4
 13 14  4
 14 15  4
 15 16  4
 16 17  4
 12 17  4
 17 18  1
 18 19  1
 18 20  1
 13 21  1
 21 22  1
 21 23  1
 11 24  1
 24 25  2
 25 26  1
  7 26  1
 26 27  1
 27 28  4
 28 29  4
 29 30  4
 30 31  4
 31 32  4
 27 32  4
 32 33  1
 33 34  1
 33 35  1
 28 36  1
 36 37  1
 36 38  1
 25 39  1
 39 40  4
 40 41  4
 41 42  4
 42 43  4
 43 44  4
 44 45  4
 45 46  4
 46 47  4
 24 47  1
 47 48  4
 39 48  4
 43 48  4
  7 49  1
 49 50  1
 49 51  1
 51 52  1
 52 53  1
  7 53  1
 53 54  1
  1 55  1
  1 56  1
  1 57  1
  3 58  1
  3 59  1
  4 60  1
  4 61  1
  6 62  1
  6 63  1
  6 64  1
 14 65  1
 15 66  1
 16 67  1
 18 68  1
 19 69  1
 19 70  1
 19 71  1
 20 72  1
 20 73  1
 20 74  1
 21 75  1
 22 76  1
 22 77  1
 22 78  1
 23 79  1
 23 80  1
 23 81  1
 29 82  1
 30 83  1
 31 84  1
 33 85  1
 34 86  1
 34 87  1
 34 88  1
 35 89  1
 35 90  1
 35 91  1
 36 92  1
 37 93  1
 37 94  1
 37 95  1
 38 96  1
 38 97  1
 38 98  1
 40 99  1
 41100  1
 42101  1
 44102  1
 45103  1
 46104  1
 50105  1
 50106  1
 50107  1
 51108  1
 51109  1
 52110  1
 52111  1
 54112  1
 54113  1
 54114  1
M  END
$$$$
