
     RDKit          3D

 57 60  0  0  0  0  0  0  0  0999 V2000
   -4.8380   -2.2715    2.3750 C   0  0  0  0  0  0  0  0  0  0  0  0
   -5.1188   -2.3121    1.0116 C   0  0  0  0  0  0  0  0  0  0  0  0
   -4.3803   -1.5268    0.1247 C   0  0  0  0  0  0  0  0  0  0  0  0
   -3.3404   -0.7096    0.5876 C   0  0  0  0  0  0  0  0  0  0  0  0
   -2.6608    0.1210   -0.3993 N   0  0  0  0  0  0  0  0  0  0  0  0
   -1.3073    0.5337   -0.0408 C   0  0  0  0  0  0  0  0  0  0  0  0
   -0.2896   -0.3046   -0.3351 C   0  0  0  0  0  0  0  0  0  0  0  0
    1.0742    0.0392   -0.0678 C   0  0  0  0  0  0  0  0  0  0  0  0
    2.2292    0.3057    0.1333 C   0  0  0  0  0  0  0  0  0  0  0  0
    3.6124    0.6140    0.3539 C   0  0  0  0  0  0  0  0  0  0  0  0
    4.0077    1.0454    1.6262 C   0  0  0  0  0  0  0  0  0  0  0  0
    5.3429    1.3556    1.8780 C   0  0  0  0  0  0  0  0  0  0  0  0
    6.2850    1.2349    0.8597 C   0  0  0  0  0  0  0  0  0  0  0  0
    5.8973    0.8028   -0.4127 C   0  0  0  0  0  0  0  0  0  0  0  0
    4.5599    0.4875   -0.6782 C   0  0  0  0  0  0  0  0  0  0  0  0
    4.0874    0.0549   -1.8912 O   0  0  0  0  0  0  0  0  0  0  0  0
    5.0250   -0.0964   -2.9476 C   0  0  0  0  0  0  0  0  0  0  0  0
   -0.3726   -1.9904   -1.2208 Si  0  0  0  0  0  4  0  0  0  0  0  0
   -0.8195   -3.3446    0.0010 C   0  0  0  0  0  0  0  0  0  0  0  0
   -1.5863   -1.9614   -2.6552 C   0  0  0  0  0  0  0  0  0  0  0  0
    1.3164   -2.4397   -1.9654 C   0  0  0  0  0  0  0  0  0  0  0  0
   -1.2607    1.9132    0.4990 C   0  0  0  0  0  0  0  0  0  0  0  0
   -0.3102    2.5517    1.2871 C   0  0  0  0  0  0  0  0  0  0  0  0
   -0.5370    3.8680    1.7180 C   0  0  0  0  0  0  0  0  0  0  0  0
   -1.7195    4.5428    1.3833 C   0  0  0  0  0  0  0  0  0  0  0  0
   -2.6907    3.9080    0.6161 C   0  0  0  0  0  0  0  0  0  0  0  0
   -2.4238    2.6141    0.1939 C   0  0  0  0  0  0  0  0  0  0  0  0
   -3.5212    1.6118   -0.7224 S   0  0  0  0  0  6  0  0  0  0  0  0
   -3.3461    1.9651   -2.1155 O   0  0  0  0  0  0  0  0  0  0  0  0
   -4.8094    1.6447   -0.0648 O   0  0  0  0  0  0  0  0  0  0  0  0
   -3.0892   -0.6501    1.9652 C   0  0  0  0  0  0  0  0  0  0  0  0
   -3.8282   -1.4382    2.8522 C   0  0  0  0  0  0  0  0  0  0  0  0
   -5.4161   -2.8785    3.0674 H   0  0  0  0  0  0  0  0  0  0  0  0
   -5.9192   -2.9454    0.6379 H   0  0  0  0  0  0  0  0  0  0  0  0
   -4.6228   -1.5527   -0.9349 H   0  0  0  0  0  0  0  0  0  0  0  0
    3.2773    1.1393    2.4260 H   0  0  0  0  0  0  0  0  0  0  0  0
    5.6478    1.6899    2.8664 H   0  0  0  0  0  0  0  0  0  0  0  0
    7.3273    1.4768    1.0544 H   0  0  0  0  0  0  0  0  0  0  0  0
    6.6655    0.7235   -1.1747 H   0  0  0  0  0  0  0  0  0  0  0  0
    5.4858    0.8624   -3.2069 H   0  0  0  0  0  0  0  0  0  0  0  0
    4.4814   -0.4526   -3.8280 H   0  0  0  0  0  0  0  0  0  0  0  0
    5.7828   -0.8467   -2.6991 H   0  0  0  0  0  0  0  0  0  0  0  0
   -0.1279   -3.3412    0.8489 H   0  0  0  0  0  0  0  0  0  0  0  0
   -0.7613   -4.3252   -0.4809 H   0  0  0  0  0  0  0  0  0  0  0  0
   -1.8333   -3.2211    0.3866 H   0  0  0  0  0  0  0  0  0  0  0  0
   -1.4725   -2.8636   -3.2642 H   0  0  0  0  0  0  0  0  0  0  0  0
   -1.4040   -1.0941   -3.2969 H   0  0  0  0  0  0  0  0  0  0  0  0
   -2.6216   -1.9242   -2.3111 H   0  0  0  0  0  0  0  0  0  0  0  0
    1.6512   -1.6591   -2.6546 H   0  0  0  0  0  0  0  0  0  0  0  0
    2.0670   -2.5670   -1.1801 H   0  0  0  0  0  0  0  0  0  0  0  0
    1.2400   -3.3796   -2.5202 H   0  0  0  0  0  0  0  0  0  0  0  0
    0.6008    2.0534    1.5987 H   0  0  0  0  0  0  0  0  0  0  0  0
    0.2118    4.3689    2.3288 H   0  0  0  0  0  0  0  0  0  0  0  0
   -1.8802    5.5602    1.7329 H   0  0  0  0  0  0  0  0  0  0  0  0
   -3.6225    4.4021    0.3595 H   0  0  0  0  0  0  0  0  0  0  0  0
   -2.3234   -0.0009    2.3767 H   0  0  0  0  0  0  0  0  0  0  0  0
   -3.6214   -1.3933    3.9185 H   0  0  0  0  0  0  0  0  0  0  0  0
  1  2  2  0
  2  3  1  0
  3  4  2  0
  4  5  1  0
  5  6  1  0
  6  7  2  0
  7  8  1  0
  8  9  3  0
  9 10  1  0
 10 11  2  0
 11 12  1  0
 12 13  2  0
 13 14  1  0
 14 15  2  0
 15 16  1  0
 16 17  1  0
  7 18  1  0
 18 19  1  0
 18 20  1  0
 18 21  1  0
  6 22  1  0
 22 23  2  0
 23 24  1  0
 24 25  2  0
 25 26  1  0
 26 27  2  0
 27 28  1  0
 28 29  2  0
 28 30  2  0
  4 31  1  0
 31 32  2  0
 32  1  1  0
 28  5  1  0
 15 10  1  0
 27 22  1  0
  1 33  1  0
  2 34  1  0
  3 35  1  0
 11 36  1  0
 12 37  1  0
 13 38  1  0
 14 39  1  0
 17 40  1  0
 17 41  1  0
 17 42  1  0
 19 43  1  0
 19 44  1  0
 19 45  1  0
 20 46  1  0
 20 47  1  0
 20 48  1  0
 21 49  1  0
 21 50  1  0
 21 51  1  0
 23 52  1  0
 24 53  1  0
 25 54  1  0
 26 55  1  0
 31 56  1  0
 32 57  1  0
M  END
