
 OpenBabel09252516553D

 32 35  0  0  0  0  0  0  0  0999 V2000
    0.9622   -0.0401    0.0553 O   0  0  0  0  0  0  0  0  0  0  0  0
    2.1854   -0.0001    0.1187 C   0  0  0  0  0  0  0  0  0  0  0  0
    2.8284    1.1618    0.4095 N   0  0  0  0  0  0  0  0  0  0  0  0
    4.2043    1.3167    0.2753 C   0  0  0  0  0  0  0  0  0  0  0  0
    4.7382    2.6018    0.4247 C   0  0  0  0  0  0  0  0  0  0  0  0
    6.0775    2.8286    0.1350 C   0  0  0  0  0  0  0  0  0  0  0  0
    6.8512    1.7858   -0.3606 C   0  0  0  0  0  0  0  0  0  0  0  0
    6.3028    0.5029   -0.5021 C   0  0  0  0  0  0  0  0  0  0  0  0
    4.9906    0.2153   -0.1000 C   0  0  0  0  0  0  0  0  0  0  0  0
    4.3894   -1.1664   -0.0752 C   0  0  0  0  0  0  0  0  0  0  0  0
    3.0352   -1.2251   -0.0386 C   0  0  0  0  0  0  0  0  0  0  0  0
    2.2001   -2.4727   -0.0720 C   0  0  0  0  0  0  0  0  0  0  0  0
    2.9368   -3.7884   -0.2461 C   0  0  0  0  0  0  0  0  0  0  0  0
    4.4311   -3.7111   -0.1413 C   0  0  0  0  0  0  0  0  0  0  0  0
    5.1269   -4.9396   -0.1410 C   0  0  0  0  0  0  0  0  0  0  0  0
    6.5047   -4.9806    0.0161 C   0  0  0  0  0  0  0  0  0  0  0  0
    7.1915   -3.7961    0.2199 C   0  0  0  0  0  0  0  0  0  0  0  0
    6.5006   -2.5769    0.2339 C   0  0  0  0  0  0  0  0  0  0  0  0
    5.1180   -2.4873   -0.0134 C   0  0  0  0  0  0  0  0  0  0  0  0
    2.2326    1.9648    0.5553 H   0  0  0  0  0  0  0  0  0  0  0  0
    4.1136    3.4310    0.7451 H   0  0  0  0  0  0  0  0  0  0  0  0
    6.5031    3.8215    0.2533 H   0  0  0  0  0  0  0  0  0  0  0  0
    7.8852    1.9669   -0.6449 H   0  0  0  0  0  0  0  0  0  0  0  0
    6.9308   -0.2551   -0.9593 H   0  0  0  0  0  0  0  0  0  0  0  0
    1.6109   -2.5244    0.8538 H   0  0  0  0  0  0  0  0  0  0  0  0
    1.4684   -2.3957   -0.8880 H   0  0  0  0  0  0  0  0  0  0  0  0
    2.5714   -4.4809    0.5255 H   0  0  0  0  0  0  0  0  0  0  0  0
    2.6722   -4.2321   -1.2137 H   0  0  0  0  0  0  0  0  0  0  0  0
    4.5802   -5.8746   -0.2512 H   0  0  0  0  0  0  0  0  0  0  0  0
    7.0308   -5.9309    0.0113 H   0  0  0  0  0  0  0  0  0  0  0  0
    8.2660   -3.8120    0.3830 H   0  0  0  0  0  0  0  0  0  0  0  0
    7.0912   -1.7026    0.4803 H   0  0  0  0  0  0  0  0  0  0  0  0
  1  2  2  0  0  0  0
  2  3  1  0  0  0  0
  2 11  1  0  0  0  0
  3  4  1  0  0  0  0
  3 20  1  0  0  0  0
  4  5  1  0  0  0  0
  4  9  2  0  0  0  0
  5  6  2  0  0  0  0
  5 21  1  0  0  0  0
  6  7  1  0  0  0  0
  6 22  1  0  0  0  0
  7  8  2  0  0  0  0
  7 23  1  0  0  0  0
  8  9  1  0  0  0  0
  8 24  1  0  0  0  0
  9 10  1  0  0  0  0
 10 11  2  0  0  0  0
 10 19  1  0  0  0  0
 11 12  1  0  0  0  0
 12 13  1  0  0  0  0
 12 25  1  0  0  0  0
 12 26  1  0  0  0  0
 13 14  1  0  0  0  0
 13 27  1  0  0  0  0
 13 28  1  0  0  0  0
 14 15  1  0  0  0  0
 14 19  2  0  0  0  0
 15 16  2  0  0  0  0
 15 29  1  0  0  0  0
 16 17  1  0  0  0  0
 16 30  1  0  0  0  0
 17 18  2  0  0  0  0
 17 31  1  0  0  0  0
 18 19  1  0  0  0  0
 18 32  1  0  0  0  0
M  END
$$$$
