
     RDKit          3D

 32 35  0  0  0  0  0  0  0  0999 V2000
    0.4667   -3.8498    0.5048 O   0  0  0  0  0  0  0  0  0  0  0  0
    0.7372   -2.6931    0.1953 C   0  0  0  0  0  0  0  0  0  0  0  0
    1.9737   -2.3669   -0.2743 N   0  0  0  0  0  0  0  0  0  0  0  0
    2.3057   -1.0977   -0.7466 C   0  0  0  0  0  0  0  0  0  0  0  0
    3.5554   -0.9114   -1.3458 C   0  0  0  0  0  0  0  0  0  0  0  0
    3.8679    0.3151   -1.9247 C   0  0  0  0  0  0  0  0  0  0  0  0
    2.9243    1.3375   -1.9219 C   0  0  0  0  0  0  0  0  0  0  0  0
    1.6803    1.1455   -1.3100 C   0  0  0  0  0  0  0  0  0  0  0  0
    1.3642   -0.0610   -0.6677 C   0  0  0  0  0  0  0  0  0  0  0  0
    0.0643   -0.3015    0.0252 C   0  0  0  0  0  0  0  0  0  0  0  0
   -0.2480   -1.5825    0.3418 C   0  0  0  0  0  0  0  0  0  0  0  0
   -1.6061   -1.9923    0.8584 C   0  0  0  0  0  0  0  0  0  0  0  0
   -2.7009   -1.0661    0.3252 C   0  0  0  0  0  0  0  0  0  0  0  0
   -2.3055    0.3673    0.5553 C   0  0  0  0  0  0  0  0  0  0  0  0
   -3.2729    1.3229    0.8971 C   0  0  0  0  0  0  0  0  0  0  0  0
   -2.8915    2.6287    1.1911 C   0  0  0  0  0  0  0  0  0  0  0  0
   -1.5455    2.9786    1.1606 C   0  0  0  0  0  0  0  0  0  0  0  0
   -0.5817    2.0317    0.8004 C   0  0  0  0  0  0  0  0  0  0  0  0
   -0.9460    0.7256    0.4423 C   0  0  0  0  0  0  0  0  0  0  0  0
    2.6241   -3.1350   -0.3636 H   0  0  0  0  0  0  0  0  0  0  0  0
    4.2799   -1.7197   -1.3872 H   0  0  0  0  0  0  0  0  0  0  0  0
    4.8334    0.4645   -2.4009 H   0  0  0  0  0  0  0  0  0  0  0  0
    3.1488    2.2859   -2.4044 H   0  0  0  0  0  0  0  0  0  0  0  0
    0.9582    1.9549   -1.3709 H   0  0  0  0  0  0  0  0  0  0  0  0
   -1.8588   -3.0138    0.5518 H   0  0  0  0  0  0  0  0  0  0  0  0
   -1.5874   -1.9767    1.9556 H   0  0  0  0  0  0  0  0  0  0  0  0
   -3.6438   -1.2978    0.8342 H   0  0  0  0  0  0  0  0  0  0  0  0
   -2.8546   -1.2242   -0.7495 H   0  0  0  0  0  0  0  0  0  0  0  0
   -4.3229    1.0466    0.9577 H   0  0  0  0  0  0  0  0  0  0  0  0
   -3.6405    3.3658    1.4687 H   0  0  0  0  0  0  0  0  0  0  0  0
   -1.2405    3.9879    1.4250 H   0  0  0  0  0  0  0  0  0  0  0  0
    0.4626    2.3311    0.8304 H   0  0  0  0  0  0  0  0  0  0  0  0
  1  2  2  0
  2  3  1  0
  3  4  1  0
  4  5  2  0
  5  6  1  0
  6  7  2  0
  7  8  1  0
  8  9  2  0
  9 10  1  0
 10 11  2  0
 11 12  1  0
 12 13  1  0
 13 14  1  0
 14 15  2  0
 15 16  1  0
 16 17  2  0
 17 18  1  0
 18 19  2  0
 11  2  1  0
 19 14  1  0
  9  4  1  0
 19 10  1  0
  3 20  1  0
  5 21  1  0
  6 22  1  0
  7 23  1  0
  8 24  1  0
 12 25  1  0
 12 26  1  0
 13 27  1  0
 13 28  1  0
 15 29  1  0
 16 30  1  0
 17 31  1  0
 18 32  1  0
M  END
