
 OpenBabel09252519443D

 42 41  0  0  0  0  0  0  0  0999 V2000
    0.9399    0.0660   -0.0451 C   0  0  0  0  0  0  0  0  0  0  0  0
    0.2333    1.4447    1.4021 Pt  0  0  0  0  0  0  0  0  0  0  0  0
    1.9642    2.6343    1.1140 C   0  0  0  0  0  0  0  0  0  0  0  0
   -0.7661    2.5303   -0.1202 C   0  0  0  0  0  0  0  0  0  0  0  0
   -0.4567    2.7909    2.8151 N   0  0  0  0  0  0  0  0  0  0  0  0
    0.2301    3.8217    3.0993 N   0  3  0  0  0  0  0  0  0  0  0  0
    0.9169    4.8526    3.3835 N   0  5  0  0  0  0  0  0  0  0  0  0
   -1.7508    0.0811    1.7322 P   0  0  0  0  0  4  0  0  0  0  0  0
   -1.3442   -1.6746    1.4146 C   0  0  0  0  0  0  0  0  0  0  0  0
   -2.3403    0.2688    3.4545 C   0  0  0  0  0  0  0  0  0  0  0  0
   -3.0622    0.6223    0.5763 C   0  0  0  0  0  0  0  0  0  0  0  0
    1.3788    0.2004    3.1469 P   0  0  0  0  0  4  0  0  0  0  0  0
    0.7339   -1.5114    3.1990 C   0  0  0  0  0  0  0  0  0  0  0  0
    3.1739    0.1655    2.7930 C   0  0  0  0  0  0  0  0  0  0  0  0
    1.0912    1.0101    4.7626 C   0  0  0  0  0  0  0  0  0  0  0  0
    0.5833    0.3507   -1.0129 H   0  0  0  0  0  0  0  0  0  0  0  0
    0.5833   -0.9144    0.1923 H   0  0  0  0  0  0  0  0  0  0  0  0
    2.0099    0.0660   -0.0451 H   0  0  0  0  0  0  0  0  0  0  0  0
    2.3089    2.5246    0.1070 H   0  0  0  0  0  0  0  0  0  0  0  0
    1.7265    3.6609    1.2998 H   0  0  0  0  0  0  0  0  0  0  0  0
    2.7310    2.3179    1.7899 H   0  0  0  0  0  0  0  0  0  0  0  0
   -1.8157    2.5507    0.0868 H   0  0  0  0  0  0  0  0  0  0  0  0
   -0.3891    3.5312   -0.1506 H   0  0  0  0  0  0  0  0  0  0  0  0
   -0.5980    2.0569   -1.0649 H   0  0  0  0  0  0  0  0  0  0  0  0
   -0.5774   -1.9910    2.0905 H   0  0  0  0  0  0  0  0  0  0  0  0
   -2.2178   -2.2750    1.5600 H   0  0  0  0  0  0  0  0  0  0  0  0
   -0.9995   -1.7843    0.4076 H   0  0  0  0  0  0  0  0  0  0  0  0
   -2.5781    1.2954    3.6403 H   0  0  0  0  0  0  0  0  0  0  0  0
   -3.2139   -0.3316    3.5999 H   0  0  0  0  0  0  0  0  0  0  0  0
   -1.5735   -0.0476    4.1304 H   0  0  0  0  0  0  0  0  0  0  0  0
   -3.3000    1.6489    0.7620 H   0  0  0  0  0  0  0  0  0  0  0  0
   -2.7176    0.5126   -0.4307 H   0  0  0  0  0  0  0  0  0  0  0  0
   -3.9359    0.0219    0.7217 H   0  0  0  0  0  0  0  0  0  0  0  0
    0.9020   -1.9848    2.2543 H   0  0  0  0  0  0  0  0  0  0  0  0
    1.2383   -2.0593    3.9673 H   0  0  0  0  0  0  0  0  0  0  0  0
   -0.3157   -1.4910    3.4060 H   0  0  0  0  0  0  0  0  0  0  0  0
    3.5510    1.1664    2.7625 H   0  0  0  0  0  0  0  0  0  0  0  0
    3.6783   -0.3825    3.5613 H   0  0  0  0  0  0  0  0  0  0  0  0
    3.3420   -0.3080    1.8483 H   0  0  0  0  0  0  0  0  0  0  0  0
    1.4683    2.0110    4.7321 H   0  0  0  0  0  0  0  0  0  0  0  0
    0.0416    1.0305    4.9696 H   0  0  0  0  0  0  0  0  0  0  0  0
    1.5956    0.4621    5.5309 H   0  0  0  0  0  0  0  0  0  0  0  0
  1  2  1  0  0  0  0
  1 16  1  0  0  0  0
  1 17  1  0  0  0  0
  1 18  1  0  0  0  0
  2  3  1  0  0  0  0
  2  4  1  0  0  0  0
  2  5  1  0  0  0  0
  2  8  1  0  0  0  0
  2 12  1  0  0  0  0
  3 19  1  0  0  0  0
  3 20  1  0  0  0  0
  3 21  1  0  0  0  0
  4 22  1  0  0  0  0
  4 23  1  0  0  0  0
  4 24  1  0  0  0  0
  5  6  2  0  0  0  0
  6  7  2  0  0  0  0
  8  9  1  0  0  0  0
  8 10  1  0  0  0  0
  8 11  1  0  0  0  0
  9 25  1  0  0  0  0
  9 26  1  0  0  0  0
  9 27  1  0  0  0  0
 10 28  1  0  0  0  0
 10 29  1  0  0  0  0
 10 30  1  0  0  0  0
 11 31  1  0  0  0  0
 11 32  1  0  0  0  0
 11 33  1  0  0  0  0
 12 13  1  0  0  0  0
 12 14  1  0  0  0  0
 12 15  1  0  0  0  0
 13 34  1  0  0  0  0
 13 35  1  0  0  0  0
 13 36  1  0  0  0  0
 14 37  1  0  0  0  0
 14 38  1  0  0  0  0
 14 39  1  0  0  0  0
 15 40  1  0  0  0  0
 15 41  1  0  0  0  0
 15 42  1  0  0  0  0
M  CHG  2   6   1   7  -1
M  END
$$$$
