
 OpenBabel09252515183D

 68 74  0  0  1  0  0  0  0  0999 V2000
    0.9496   -0.0624   -0.0597 H   0  0  0  0  0  0  0  0  0  0  0  0
    2.0196   -0.0624   -0.0597 C   0  0  0  0  0  0  0  0  0  0  0  0
    2.3763   -0.5527   -0.9413 H   0  0  0  0  0  0  0  0  0  0  0  0
    2.3763    0.9462   -0.0434 H   0  0  0  0  0  0  0  0  0  0  0  0
    2.6229   -0.9394    1.4043 S   0  0  0  0  0  0  0  0  0  0  0  0
    2.1128   -2.3821    1.3810 O   0  0  0  0  0  0  0  0  0  0  0  0
   -0.4631   -2.8608    1.3733 U   0  3  0  0  0  0  0  0  0  0  0  0
   -1.8675   -0.6545    1.5295 O   0  0  0  0  0  0  0  0  0  0  0  0
   -1.1981    0.6983    1.2764 S   0  0  0  0  0  0  0  0  0  0  0  0
   -0.5182    0.7305   -0.4008 C   0  0  0  0  0  0  0  0  0  0  0  0
   -1.3074    0.5852   -1.1085 H   0  0  0  0  0  0  0  0  0  0  0  0
   -0.0501    1.6763   -0.5778 H   0  0  0  0  0  0  0  0  0  0  0  0
    0.2050   -0.0508   -0.5076 H   0  0  0  0  0  0  0  0  0  0  0  0
   -2.4213    2.0200    1.4570 C   0  0  0  0  0  0  0  0  0  0  0  0
   -3.2106    1.8747    0.7494 H   0  0  0  0  0  0  0  0  0  0  0  0
   -2.8233    2.0009    2.4485 H   0  0  0  0  0  0  0  0  0  0  0  0
   -1.9533    2.9658    1.2800 H   0  0  0  0  0  0  0  0  0  0  0  0
   -2.7738   -3.9365    1.9800 O   0  0  0  0  0  0  0  0  0  0  0  0
   -3.9575   -3.4848    1.3387 C   0  0  0  0  0  0  0  0  0  0  0  0
   -5.0784   -4.0066    1.6330 O   0  0  0  0  0  0  0  0  0  0  0  0
   -1.0580    2.1428    4.1546 C   0  0  0  0  0  0  0  0  0  0  0  0
   -1.8660    2.4739    3.5362 H   0  0  0  0  0  0  0  0  0  0  0  0
   -1.2146    2.4812    5.1575 H   0  0  0  0  0  0  0  0  0  0  0  0
   -0.9974    0.6741    4.1368 N   0  0  1  0  0  4  0  0  0  0  0  0
   -0.9599    0.5576    5.6618 C   0  0  0  0  0  0  0  0  0  0  0  0
   -0.8305    1.5306    6.0878 H   0  0  0  0  0  0  0  0  0  0  0  0
   -0.1449   -0.0730    5.9500 H   0  0  0  0  0  0  0  0  0  0  0  0
   -2.2715   -0.0449    6.1666 C   0  0  0  0  0  0  0  0  0  0  0  0
   -3.0423    0.1279    5.4449 H   0  0  0  0  0  0  0  0  0  0  0  0
   -2.5398    0.4141    7.0952 H   0  0  0  0  0  0  0  0  0  0  0  0
   -2.0998   -1.5509    6.3744 N   0  0  1  0  0  4  0  0  0  0  0  0
   -3.7661   -2.6259    2.8302 C   0  0  0  0  0  0  0  0  0  0  0  0
   -4.6457   -2.9717    2.3285 H   0  0  0  0  0  0  0  0  0  0  0  0
   -2.9455   -3.2718    2.5975 H   0  0  0  0  0  0  0  0  0  0  0  0
   -3.4442   -1.2127    2.3724 C   0  0  0  0  0  0  0  0  0  0  0  0
   -4.2873   -0.2789    2.5521 O   0  0  0  0  0  0  0  0  0  0  0  0
   -2.2013   -0.9358    1.7438 O   0  0  0  0  0  0  0  0  0  0  0  0
   -3.3609   -2.2791    5.9081 C   0  0  0  0  0  0  0  0  0  0  0  0
   -4.0720   -2.3046    6.7072 H   0  0  0  0  0  0  0  0  0  0  0  0
   -3.7810   -1.7624    5.0705 H   0  0  0  0  0  0  0  0  0  0  0  0
   -3.0068   -3.7095    5.4981 C   0  0  0  0  0  0  0  0  0  0  0  0
   -3.5019   -4.3987    6.1498 H   0  0  0  0  0  0  0  0  0  0  0  0
   -1.9481   -3.8481    5.5676 H   0  0  0  0  0  0  0  0  0  0  0  0
   -3.4590   -3.9578    4.0586 N   0  0  2  0  0  4  0  0  0  0  0  0
   -4.4002   -4.3083    4.2369 H   0  0  0  0  0  0  0  0  0  0  0  0
   -2.3238   -3.6079    3.0943 C   0  0  0  0  0  0  0  0  0  0  0  0
   -2.0256   -4.4866    2.5616 H   0  0  0  0  0  0  0  0  0  0  0  0
   -1.4914   -3.2256    3.6475 H   0  0  0  0  0  0  0  0  0  0  0  0
   -2.8050   -2.5482    2.0999 C   0  0  0  0  0  0  0  0  0  0  0  0
   -3.3296   -1.7803    2.6292 H   0  0  0  0  0  0  0  0  0  0  0  0
   -3.4570   -3.0033    1.3839 H   0  0  0  0  0  0  0  0  0  0  0  0
   -1.6068   -1.9330    1.3759 N   0  0  1  0  0  4  0  0  0  0  0  0
   -1.9205   -1.7556   -0.0986 C   0  0  0  0  0  0  0  0  0  0  0  0
   -2.9364   -2.0091   -0.3192 H   0  0  0  0  0  0  0  0  0  0  0  0
   -1.7809   -0.7354   -0.3895 H   0  0  0  0  0  0  0  0  0  0  0  0
   -1.0558   -2.5533   -0.7544 C   0  0  0  0  0  0  0  0  0  0  0  0
   -1.0310   -2.6938   -2.0173 O   0  0  0  0  0  0  0  0  0  0  0  0
   -0.2263   -3.1793    0.0879 O   0  0  0  0  0  0  0  0  0  0  0  0
   -1.2170   -0.5902    1.9951 C   0  0  0  0  0  0  0  0  0  0  0  0
   -1.9708    0.1326    1.7623 H   0  0  0  0  0  0  0  0  0  0  0  0
   -0.2745   -0.2779    1.5965 H   0  0  0  0  0  0  0  0  0  0  0  0
   -1.1043   -0.7201    3.5146 C   0  0  0  0  0  0  0  0  0  0  0  0
   -0.2326   -1.2895    3.7611 H   0  0  0  0  0  0  0  0  0  0  0  0
   -1.9724   -1.2158    3.8960 H   0  0  0  0  0  0  0  0  0  0  0  0
    4.4329   -0.9394    1.4043 C   0  0  0  0  0  0  0  0  0  0  0  0
    4.7896   -1.4296    0.5226 H   0  0  0  0  0  0  0  0  0  0  0  0
    4.7896    0.0693    1.4205 H   0  0  0  0  0  0  0  0  0  0  0  0
    4.7896   -1.4578    2.2697 H   0  0  0  0  0  0  0  0  0  0  0  0
  1  2  1  0  0  0  0
  2  3  1  0  0  0  0
  2  4  1  0  0  0  0
  2  5  1  0  0  0  0
  5  6  2  0  0  0  0
  5 65  1  0  0  0  0
  6  7  1  0  0  0  0
  7  8  1  0  0  0  0
  7 18  1  0  0  0  0
  7 24  1  0  0  0  0
  7 31  1  0  0  0  0
  7 37  1  0  0  0  0
  7 44  1  0  0  0  0
  7 52  1  0  0  0  0
  7 58  1  0  0  0  0
  8  9  2  0  0  0  0
  9 10  1  0  0  0  0
  9 14  1  0  0  0  0
 10 11  1  0  0  0  0
 10 12  1  0  0  0  0
 10 13  1  0  0  0  0
 14 15  1  0  0  0  0
 14 16  1  0  0  0  0
 14 17  1  0  0  0  0
 18 19  1  0  0  0  0
 19 20  2  0  0  0  0
 19 21  1  0  0  0  0
 21 22  1  0  0  0  0
 21 23  1  0  0  0  0
 24 21  1  1  0  0  0
 24 25  1  0  0  0  0
 24 62  1  0  0  0  0
 25 26  1  0  0  0  0
 25 27  1  0  0  0  0
 25 28  1  0  0  0  0
 28 29  1  0  0  0  0
 28 30  1  0  0  0  0
 31 28  1  1  0  0  0
 31 32  1  0  0  0  0
 31 38  1  0  0  0  0
 32 33  1  0  0  0  0
 32 34  1  0  0  0  0
 32 35  1  0  0  0  0
 35 36  2  0  0  0  0
 35 37  1  0  0  0  0
 38 39  1  0  0  0  0
 38 40  1  0  0  0  0
 38 41  1  0  0  0  0
 41 42  1  0  0  0  0
 41 43  1  0  0  0  0
 41 44  1  0  0  0  0
 44 45  1  6  0  0  0
 44 46  1  0  0  0  0
 46 47  1  0  0  0  0
 46 48  1  0  0  0  0
 46 49  1  0  0  0  0
 49 50  1  0  0  0  0
 49 51  1  0  0  0  0
 52 49  1  6  0  0  0
 52 53  1  0  0  0  0
 52 59  1  0  0  0  0
 53 54  1  0  0  0  0
 53 55  1  0  0  0  0
 53 56  1  0  0  0  0
 56 57  2  0  0  0  0
 56 58  1  0  0  0  0
 59 60  1  0  0  0  0
 59 61  1  0  0  0  0
 59 62  1  0  0  0  0
 62 63  1  0  0  0  0
 62 64  1  0  0  0  0
 65 66  1  0  0  0  0
 65 67  1  0  0  0  0
 65 68  1  0  0  0  0
M  CHG  1   7   1
M  END
$$$$
