
 OpenBabel09252514113D

 35 38  0  0  0  0  0  0  0  0999 V2000
    0.9031   -0.0663   -0.3648 F   0  0  0  0  0  0  0  0  0  0  0  0
    2.2561   -0.1108   -0.2306 C   0  0  0  0  0  0  0  0  0  0  0  0
    2.6991   -0.9719   -1.1902 F   0  0  0  0  0  0  0  0  0  0  0  0
    2.7131    1.1182   -0.6033 F   0  0  0  0  0  0  0  0  0  0  0  0
    2.6909   -0.5090    1.1570 C   0  0  0  0  0  0  0  0  0  0  0  0
    2.8330   -1.8564    1.5117 C   0  0  0  0  0  0  0  0  0  0  0  0
    3.2610   -2.2065    2.7934 C   0  0  0  0  0  0  0  0  0  0  0  0
    3.5486   -1.2159    3.7364 C   0  0  0  0  0  0  0  0  0  0  0  0
    3.3508    0.1278    3.4185 C   0  0  0  0  0  0  0  0  0  0  0  0
    2.9269    0.4723    2.1306 C   0  0  0  0  0  0  0  0  0  0  0  0
    3.5266    1.1406    4.3956 N   0  0  0  0  0  0  0  0  0  0  0  0
    4.9429    0.9876    5.4282 C   0  0  0  0  0  0  0  0  0  0  0  0
    5.1841    2.3774    6.4622 C   0  0  0  0  0  0  0  0  0  0  0  0
    5.0792    1.9606    8.1749 Cl  0  0  0  0  0  0  0  0  0  0  0  0
    5.7253    3.7148    6.3268 O   0  0  0  0  0  0  0  0  0  0  0  0
    4.9027    4.5225    5.4138 C   0  0  0  0  0  0  0  0  0  0  0  0
    5.7524    6.1405    4.8742 Br  0  0  0  0  0  0  0  0  0  0  0  0
    3.3928    4.7862    5.7683 C   0  0  0  0  0  0  0  0  0  0  0  0
    2.7106    3.4110    5.7369 C   0  0  0  0  0  0  0  0  0  0  0  0
    3.9443    2.7086    5.8599 C   0  0  0  0  0  0  0  0  0  0  0  0
    4.6323    3.4564    4.4408 C   0  0  0  0  0  0  0  0  0  0  0  0
    6.4214    2.9040    3.3245 I   0  0  0  0  0  0  0  0  0  0  0  0
    2.4255    2.2730    4.5158 C   0  0  0  0  0  0  0  0  0  0  0  0
    1.4417    2.3620    3.7921 O   0  0  0  0  0  0  0  0  0  0  0  0
    2.6079   -2.6391    0.7885 H   0  0  0  0  0  0  0  0  0  0  0  0
    3.3499   -3.2560    3.0652 H   0  0  0  0  0  0  0  0  0  0  0  0
    3.8388   -1.5225    4.7362 H   0  0  0  0  0  0  0  0  0  0  0  0
    2.7981    1.5202    1.8616 H   0  0  0  0  0  0  0  0  0  0  0  0
    4.6978    0.1274    6.0665 H   0  0  0  0  0  0  0  0  0  0  0  0
    5.8004    0.7140    4.8147 H   0  0  0  0  0  0  0  0  0  0  0  0
    2.8991    5.4534    5.0507 H   0  0  0  0  0  0  0  0  0  0  0  0
    3.3171    5.2250    6.7699 H   0  0  0  0  0  0  0  0  0  0  0  0
    1.9812    3.2717    6.5411 H   0  0  0  0  0  0  0  0  0  0  0  0
    3.3872    1.8250    6.2667 H   0  0  0  0  0  0  0  0  0  0  0  0
    3.9206    3.7831    3.6670 H   0  0  0  0  0  0  0  0  0  0  0  0
  1  2  1  0  0  0  0
  2  3  1  0  0  0  0
  2  4  1  0  0  0  0
  2  5  1  0  0  0  0
  5  6  1  0  0  0  0
  5 10  2  0  0  0  0
  6  7  2  0  0  0  0
  6 25  1  0  0  0  0
  7  8  1  0  0  0  0
  7 26  1  0  0  0  0
  8  9  2  0  0  0  0
  8 27  1  0  0  0  0
  9 10  1  0  0  0  0
  9 11  1  0  0  0  0
 10 28  1  0  0  0  0
 11 12  1  0  0  0  0
 11 23  1  0  0  0  0
 12 13  1  0  0  0  0
 12 29  1  0  0  0  0
 12 30  1  0  0  0  0
 13 14  1  0  0  0  0
 13 15  1  0  0  0  0
 13 20  1  0  0  0  0
 15 16  1  0  0  0  0
 16 17  1  0  0  0  0
 16 18  1  0  0  0  0
 16 21  1  0  0  0  0
 18 19  1  0  0  0  0
 18 31  1  0  0  0  0
 18 32  1  0  0  0  0
 19 20  1  0  0  0  0
 19 23  1  0  0  0  0
 19 33  1  0  0  0  0
 20 21  1  0  0  0  0
 20 34  1  0  0  0  0
 21 22  1  0  0  0  0
 21 35  1  0  0  0  0
 23 24  2  0  0  0  0
M  END
$$$$
