
  --CCDC--092525    3D                              

 62 63  0  0  0  0  0  0  0  0999 V2000
   -0.0294    0.1046   -0.0253 C      0
    1.9034    0.0217   -0.6751 Pt     0
    3.8367   -0.0612   -1.3251 C      0
    2.5076    1.0516    0.9805 C      0
    1.2906   -0.9801   -2.3446 N      0
    0.1294   -0.7026   -2.9970 N      0
    0.1065   -1.5675   -3.9909 C      0
   -1.0655   -1.6150   -4.9185 C      0
   -2.0803   -2.6843   -4.5424 C      0
   -1.5316   -4.0249   -4.1084 C      0
   -0.5969   -4.7233   -5.1149 C      0
    0.8435   -4.7918   -4.6767 C      0
    1.6973   -3.5376   -4.7815 C      0
    1.2632   -2.3692   -3.9330 C      0
    1.9989   -1.9989   -2.9041 N      0
    1.6278    2.1077   -1.8566 P      0
   -0.1171    2.4159   -2.2240 C      0
    2.5428    2.0606   -3.4166 C      0
    2.2475    3.4873   -0.8645 C      0
    2.1658   -2.1046    0.4387 P      0
    0.8700   -3.2333   -0.1265 C      0
    2.0116   -1.9672    2.2367 C      0
    3.7719   -2.8365    0.0423 C      0
   -0.3272    1.1430    0.0992 H      0
   -0.6845   -0.3783   -0.7467 H      0
   -0.1083   -0.4083    0.9311 H      0
    3.9166   -0.7408   -2.1703 H      0
    4.4762   -0.4104   -0.5173 H      0
    4.1578    0.9326   -1.6293 H      0
    1.6655    1.6033    1.3931 H      0
    3.2965    1.7473    0.7040 H      0
    2.8949    0.3668    1.7280 H      0
   -0.7031   -1.8195   -5.9248 H      0
   -1.5609   -0.6454   -4.9011 H      0
   -2.7162   -2.8542   -5.4099 H      0
   -2.6815   -2.2938   -3.7226 H      0
   -2.3757   -4.6870   -3.9210 H      0
   -0.9756   -3.8752   -3.1840 H      0
   -0.6417   -4.1787   -6.0568 H      0
   -0.9565   -5.7400   -5.2659 H      0
    1.3261   -5.5598   -5.2795 H      0
    0.8468   -5.0958   -3.6310 H      0
    1.6892   -3.2150   -5.8216 H      0
    2.7133   -3.8009   -4.4910 H      0
   -0.5318    1.6245   -2.8439 H      0
   -0.2348    3.3569   -2.7572 H      0
   -0.7029    2.4735   -1.3094 H      0
    2.2138    1.2255   -4.0316 H      0
    3.6101    1.9502   -3.2379 H      0
    2.3882    2.9779   -3.9809 H      0
    1.7104    3.5552    0.0792 H      0
    2.1235    4.4295   -1.3941 H      0
    3.3052    3.3588   -0.6440 H      0
    0.9281   -3.3852   -1.2019 H      0
   -0.1156   -2.8358    0.1068 H      0
    0.9666   -4.2030    0.3573 H      0
    1.0960   -1.4452    2.5063 H      0
    1.9837   -2.9545    2.6929 H      0
    2.8521   -1.4270    2.6657 H      0
    3.8786   -2.9742   -1.0316 H      0
    3.8818   -3.8074    0.5208 H      0
    4.5827   -2.1965    0.3840 H      0
  1  2  1
  2  3  1
  2  4  1
  2  5  1
  5  6  1
  6  7  2
  7  8  1
  8  9  1
  9 10  1
 10 11  1
 11 12  1
 12 13  1
 13 14  1
  7 14  1
 14 15  2
  5 15  1
  2 16  1
 16 17  1
 16 18  1
 16 19  1
  2 20  1
 20 21  1
 20 22  1
 20 23  1
  1 24  1
  1 25  1
  1 26  1
  3 27  1
  3 28  1
  3 29  1
  4 30  1
  4 31  1
  4 32  1
  8 33  1
  8 34  1
  9 35  1
  9 36  1
 10 37  1
 10 38  1
 11 39  1
 11 40  1
 12 41  1
 12 42  1
 13 43  1
 13 44  1
 17 45  1
 17 46  1
 17 47  1
 18 48  1
 18 49  1
 18 50  1
 19 51  1
 19 52  1
 19 53  1
 21 54  1
 21 55  1
 21 56  1
 22 57  1
 22 58  1
 22 59  1
 23 60  1
 23 61  1
 23 62  1
M  END
$$$$
