
  --CCDC--092525    3D                              

 46 54  0  0  0  0  0  0  0  0999 V2000
    0.8883   -0.5660    1.5775 Cl     0
    2.0986    1.3810    0.8673 Ir     0
    3.3053   -0.1043   -0.0161 C      0
    2.2265    0.1111   -0.7672 C      0
    1.3464   -0.1853   -1.9261 C      0
    1.3809   -0.8762   -3.1114 C      0
    0.2082   -0.9233   -3.8600 C      0
   -0.9586   -0.3345   -3.4386 C      0
   -1.0218    0.3642   -2.2054 C      0
   -2.1573    0.9775   -1.6310 C      0
   -2.0485    1.5862   -0.4123 C      0
   -0.8452    1.6478    0.2830 C      0
    0.3174    1.0921   -0.2382 C      0
    0.1775    0.4387   -1.4742 C      0
    3.0007    2.8690    1.8828 C      0
    4.3882    3.5287    1.9301 C      0
    1.6212    3.3161    1.0157 C      0
    0.9964    4.3080    0.0600 C      0
    2.8358    3.2111    0.7393 C      0
    3.6132    3.0335   -0.5583 C      0
    2.2713    2.7146    2.2687 C      0
    1.1268    3.2717    3.1164 C      0
    3.0149    1.5611    2.6207 C      0
    2.7095    0.9611    3.9764 C      0
    4.2048   -0.7006    0.0958 H      0
    2.2865   -1.3676   -3.4513 H      0
    0.2145   -1.4504   -4.8083 H      0
   -1.8480   -0.4105   -4.0554 H      0
   -3.1103    0.9579   -2.1493 H      0
   -2.9306    2.0404    0.0268 H      0
   -0.8109    2.1495    1.2444 H      0
    5.1642    2.9357    1.4410 H      0
    4.6888    3.5873    2.9741 H      0
    4.4418    4.5569    1.5586 H      0
    0.5661    3.7974   -0.7990 H      0
    1.7399    5.0146   -0.3031 H      0
    0.2053    4.8709    0.5510 H      0
    2.9672    2.6548   -1.3477 H      0
    4.4384    2.3376   -0.4279 H      0
    4.0280    3.9836   -0.8882 H      0
    1.0134    4.3557    3.0469 H      0
    1.3163    3.0756    4.1682 H      0
    0.1675    2.8033    2.8901 H      0
    1.6830    0.6029    4.0185 H      0
    2.8514    1.6889    4.7716 H      0
    3.3687    0.1191    4.1771 H      0
  1  2  1
  2  3  1
  3  4  2
  2  4  1
  4  5  1
  5  6  4
  6  7  4
  7  8  4
  8  9  4
  9 10  4
 10 11  4
 11 12  4
 12 13  4
  2 13  1
 13 14  4
  5 14  4
  9 14  4
  2 15  1
 15 16  1
 15 17  4
  2 17  1
 17 18  1
 17 19  4
  2 19  1
 19 20  1
 19 21  4
  2 21  1
 21 22  1
 21 23  4
  2 23  1
 15 23  4
 23 24  1
  3 25  1
  6 26  1
  7 27  1
  8 28  1
 10 29  1
 11 30  1
 12 31  1
 16 32  1
 16 33  1
 16 34  1
 18 35  1
 18 36  1
 18 37  1
 20 38  1
 20 39  1
 20 40  1
 22 41  1
 22 42  1
 22 43  1
 24 44  1
 24 45  1
 24 46  1
M  END
$$$$
