
 OpenBabel09252514293D

 47 52  0  0  0  0  0  0  0  0999 V2000
    1.0688    0.0272   -0.0673 H   0  0  0  0  0  0  0  0  0  0  0  0
    2.1388    0.0272   -0.0673 C   0  0  0  0  0  0  0  0  0  0  0  0
    2.7966   -0.9297   -0.6858 N   0  0  0  0  0  4  0  0  0  0  0  0
    2.3767   -1.9058   -1.7862 C   0  0  0  0  0  0  0  0  0  0  0  0
    2.6184   -1.4909   -2.7424 H   0  0  0  0  0  0  0  0  0  0  0  0
    2.8959   -2.8326   -1.6581 H   0  0  0  0  0  0  0  0  0  0  0  0
    0.8689   -2.1502   -1.7027 C   0  0  0  0  0  0  0  0  0  0  0  0
    0.5031   -1.8052   -0.7582 H   0  0  0  0  0  0  0  0  0  0  0  0
    0.3772   -1.6191   -2.4908 H   0  0  0  0  0  0  0  0  0  0  0  0
    0.5873   -3.6481   -1.8434 C   0  0  0  0  0  0  0  0  0  0  0  0
   -0.3920   -3.7903   -2.2504 H   0  0  0  0  0  0  0  0  0  0  0  0
    1.3122   -4.0875   -2.4964 H   0  0  0  0  0  0  0  0  0  0  0  0
    0.6685   -4.3038   -0.4888 N   0  0  0  0  0  4  0  0  0  0  0  0
    1.5407   -5.2574   -0.2729 C   0  0  0  0  0  0  0  0  0  0  0  0
    2.4714   -5.7026   -1.3891 C   0  0  0  0  0  0  0  0  0  0  0  0
    3.4870   -5.5508   -1.0885 H   0  0  0  0  0  0  0  0  0  0  0  0
    2.3115   -6.7406   -1.5941 H   0  0  0  0  0  0  0  0  0  0  0  0
    2.2709   -5.1300   -2.2705 H   0  0  0  0  0  0  0  0  0  0  0  0
    1.6214   -5.9125    1.0810 C   0  0  0  0  0  3  0  0  0  0  0  0
    3.0679   -6.0858    1.4701 C   0  0  0  0  0  3  0  0  0  0  0  0
    3.6346   -6.0811    0.5625 H   0  0  0  0  0  0  0  0  0  0  0  0
    3.7226   -5.0944    2.3969 C   0  0  0  0  0  3  0  0  0  0  0  0
    4.2745   -5.6192    3.1485 H   0  0  0  0  0  0  0  0  0  0  0  0
    4.6248   -4.2456    1.6372 C   0  0  0  0  0  3  0  0  0  0  0  0
    4.3501   -4.3238    0.6060 H   0  0  0  0  0  0  0  0  0  0  0  0
    4.6444   -2.9415    1.9535 C   0  0  0  0  0  3  0  0  0  0  0  0
    3.6470   -2.5768    1.8226 H   0  0  0  0  0  0  0  0  0  0  0  0
    5.5535   -1.9994    1.2077 C   0  0  0  0  0  3  0  0  0  0  0  0
    4.7763   -0.7390    0.8222 O   0  0  0  0  0  0  0  0  0  0  0  0
    4.3234   -0.8476   -0.6327 Cu  0  0  0  0  0  0  0  0  0  0  0  0
    5.8606   -0.1268   -1.6515 O   0  0  0  0  0  0  0  0  0  0  0  0
    6.4266    0.9666   -0.9440 C   0  0  0  0  0  3  0  0  0  0  0  0
    6.8345    0.3081    0.3748 C   0  0  0  0  0  3  0  0  0  0  0  0
    7.4871    0.9629    0.9134 H   0  0  0  0  0  0  0  0  0  0  0  0
    5.5860    0.0294    1.2135 C   0  0  0  0  0  3  0  0  0  0  0  0
    5.8717   -0.4309    2.1362 H   0  0  0  0  0  0  0  0  0  0  0  0
    4.8618    1.3453    1.5029 C   0  0  0  0  0  3  0  0  0  0  0  0
    3.6133    1.0666    2.3416 C   0  0  0  0  0  3  0  0  0  0  0  0
    3.8990    0.6063    3.2644 H   0  0  0  0  0  0  0  0  0  0  0  0
    2.8892    2.3825    2.6311 C   0  0  0  0  0  3  0  0  0  0  0  0
    3.5417    3.0375    3.1697 H   0  0  0  0  0  0  0  0  0  0  0  0
    2.4804    3.0414    1.3128 C   0  0  0  0  0  3  0  0  0  0  0  0
    1.9746    3.9622    1.5159 H   0  0  0  0  0  0  0  0  0  0  0  0
    3.7297    3.3197    0.4736 C   0  0  0  0  0  3  0  0  0  0  0  0
    4.3822    3.9749    1.0120 H   0  0  0  0  0  0  0  0  0  0  0  0
    4.4539    2.0038    0.1842 C   0  0  0  0  0  3  0  0  0  0  0  0
    5.7024    2.2825   -0.6546 C   0  0  0  0  0  3  0  0  0  0  0  0
  1  2  1  0  0  0  0
  2  3  2  0  0  0  0
  2 47  1  0  0  0  0
  3  4  1  0  0  0  0
  3 30  1  0  0  0  0
  4  5  1  0  0  0  0
  4  6  1  0  0  0  0
  4  7  1  0  0  0  0
  7  8  1  0  0  0  0
  7  9  1  0  0  0  0
  7 10  1  0  0  0  0
 10 11  1  0  0  0  0
 10 12  1  0  0  0  0
 10 13  1  0  0  0  0
 13 14  2  0  0  0  0
 13 30  1  0  0  0  0
 14 15  1  0  0  0  0
 14 19  1  0  0  0  0
 15 16  1  0  0  0  0
 15 17  1  0  0  0  0
 15 18  1  0  0  0  0
 19 20  1  0  0  0  0
 19 28  1  0  0  0  0
 20 21  1  0  0  0  0
 20 22  1  0  0  0  0
 22 23  1  0  0  0  0
 22 24  1  0  0  0  0
 24 25  1  0  0  0  0
 24 26  1  0  0  0  0
 26 27  1  0  0  0  0
 26 28  1  0  0  0  0
 28 29  1  0  0  0  0
 29 30  1  0  0  0  0
 30 31  1  0  0  0  0
 31 32  1  0  0  0  0
 32 33  1  0  0  0  0
 32 47  1  0  0  0  0
 33 34  1  0  0  0  0
 33 35  1  0  0  0  0
 35 36  1  0  0  0  0
 35 37  1  0  0  0  0
 37 38  1  0  0  0  0
 37 46  1  0  0  0  0
 38 39  1  0  0  0  0
 38 40  1  0  0  0  0
 40 41  1  0  0  0  0
 40 42  1  0  0  0  0
 42 43  1  0  0  0  0
 42 44  1  0  0  0  0
 44 45  1  0  0  0  0
 44 46  1  0  0  0  0
 46 47  1  0  0  0  0
M  END
$$$$
