
 OpenBabel09252514423D

 62 63  0  0  0  0  0  0  0  0999 V2000
    1.0452   -0.0821   -0.0349 C   0  0  0  0  0  0  0  0  0  0  0  0
    0.3385   -1.3748   -1.5593 Pt  0  0  0  0  0  0  0  0  0  0  0  0
    2.0695   -2.5791   -1.3405 C   0  0  0  0  0  0  0  0  0  0  0  0
   -0.6608   -2.5466   -0.1024 C   0  0  0  0  0  0  0  0  0  0  0  0
   -0.3515   -2.6370   -3.0478 N   0  0  0  0  0  0  0  0  0  0  0  0
    0.5667   -3.9787   -3.6419 N   0  0  0  0  0  0  0  0  0  0  0  0
   -0.5427   -4.5423   -4.9055 C   0  0  0  0  0  0  0  0  0  0  0  0
   -0.3453   -5.7488   -5.7805 C   0  0  0  0  0  0  0  0  0  0  0  0
   -1.2233   -6.8756   -5.2059 C   0  0  0  0  0  0  0  0  0  0  0  0
   -2.6591   -6.3522   -5.0898 C   0  0  0  0  0  0  0  0  0  0  0  0
   -3.0880   -6.0226   -6.5042 C   0  0  0  0  0  0  0  0  0  0  0  0
   -2.6304   -4.6573   -6.9833 C   0  0  0  0  0  0  0  0  0  0  0  0
   -2.7316   -3.6026   -5.8895 C   0  0  0  0  0  0  0  0  0  0  0  0
   -1.5699   -3.6730   -4.9001 C   0  0  0  0  0  0  0  0  0  0  0  0
   -1.4758   -2.6498   -3.8519 N   0  0  0  0  0  0  0  0  0  0  0  0
   -1.6455    0.0056   -1.8101 P   0  0  0  0  0  4  0  0  0  0  0  0
   -1.2389    1.7400   -1.3915 C   0  0  0  0  0  0  0  0  0  0  0  0
   -2.2350   -0.0822   -3.5404 C   0  0  0  0  0  0  0  0  0  0  0  0
   -2.9569   -0.6015   -0.6874 C   0  0  0  0  0  0  0  0  0  0  0  0
    1.4841   -0.0317   -3.2293 P   0  0  0  0  0  4  0  0  0  0  0  0
    0.8392    1.6803   -3.1824 C   0  0  0  0  0  0  0  0  0  0  0  0
    3.2792   -0.0173   -2.8740 C   0  0  0  0  0  0  0  0  0  0  0  0
    1.1965   -0.7466   -4.8891 C   0  0  0  0  0  0  0  0  0  0  0  0
    0.6886   -0.4222    0.9148 H   0  0  0  0  0  0  0  0  0  0  0  0
    0.6886    0.9105   -0.2152 H   0  0  0  0  0  0  0  0  0  0  0  0
    2.1152   -0.0821   -0.0349 H   0  0  0  0  0  0  0  0  0  0  0  0
    2.4142   -2.5277   -0.3288 H   0  0  0  0  0  0  0  0  0  0  0  0
    1.8317   -3.5932   -1.5853 H   0  0  0  0  0  0  0  0  0  0  0  0
    2.8363   -2.2241   -1.9970 H   0  0  0  0  0  0  0  0  0  0  0  0
   -1.7104   -2.5550   -0.3102 H   0  0  0  0  0  0  0  0  0  0  0  0
   -0.2838   -3.5475   -0.1298 H   0  0  0  0  0  0  0  0  0  0  0  0
   -0.4927   -2.1285    0.8681 H   0  0  0  0  0  0  0  0  0  0  0  0
   -0.6177   -5.5332   -6.7925 H   0  0  0  0  0  0  0  0  0  0  0  0
    0.6831   -6.0443   -5.7711 H   0  0  0  0  0  0  0  0  0  0  0  0
   -0.8598   -7.1737   -4.2447 H   0  0  0  0  0  0  0  0  0  0  0  0
   -1.1984   -7.7229   -5.8589 H   0  0  0  0  0  0  0  0  0  0  0  0
   -2.7184   -5.4975   -4.4488 H   0  0  0  0  0  0  0  0  0  0  0  0
   -3.2974   -7.1020   -4.6711 H   0  0  0  0  0  0  0  0  0  0  0  0
   -2.6287   -6.7464   -7.1445 H   0  0  0  0  0  0  0  0  0  0  0  0
   -4.1566   -6.0543   -6.5482 H   0  0  0  0  0  0  0  0  0  0  0  0
   -1.6027   -4.7364   -7.2706 H   0  0  0  0  0  0  0  0  0  0  0  0
   -3.2424   -4.3583   -7.8085 H   0  0  0  0  0  0  0  0  0  0  0  0
   -2.7005   -2.6421   -6.3599 H   0  0  0  0  0  0  0  0  0  0  0  0
   -3.6469   -3.7492   -5.3550 H   0  0  0  0  0  0  0  0  0  0  0  0
   -0.4721    2.0950   -2.0480 H   0  0  0  0  0  0  0  0  0  0  0  0
   -2.1125    2.3478   -1.5020 H   0  0  0  0  0  0  0  0  0  0  0  0
   -0.8942    1.7913   -0.3799 H   0  0  0  0  0  0  0  0  0  0  0  0
   -2.4728   -1.0964   -3.7851 H   0  0  0  0  0  0  0  0  0  0  0  0
   -3.1086    0.5256   -3.6508 H   0  0  0  0  0  0  0  0  0  0  0  0
   -1.4682    0.2727   -4.1968 H   0  0  0  0  0  0  0  0  0  0  0  0
   -3.1947   -1.6157   -0.9321 H   0  0  0  0  0  0  0  0  0  0  0  0
   -2.6123   -0.5502    0.3243 H   0  0  0  0  0  0  0  0  0  0  0  0
   -3.8306    0.0063   -0.7978 H   0  0  0  0  0  0  0  0  0  0  0  0
    1.0073    2.0983   -2.2119 H   0  0  0  0  0  0  0  0  0  0  0  0
    1.3436    2.2717   -3.9178 H   0  0  0  0  0  0  0  0  0  0  0  0
   -0.2104    1.6718   -3.3902 H   0  0  0  0  0  0  0  0  0  0  0  0
    3.6562   -1.0183   -2.9014 H   0  0  0  0  0  0  0  0  0  0  0  0
    3.7836    0.5741   -3.6093 H   0  0  0  0  0  0  0  0  0  0  0  0
    3.4473    0.4007   -1.9035 H   0  0  0  0  0  0  0  0  0  0  0  0
    1.5736   -1.7476   -4.9166 H   0  0  0  0  0  0  0  0  0  0  0  0
    0.1469   -0.7551   -5.0969 H   0  0  0  0  0  0  0  0  0  0  0  0
    1.7009   -0.1552   -5.6245 H   0  0  0  0  0  0  0  0  0  0  0  0
  1  2  1  0  0  0  0
  1 24  1  0  0  0  0
  1 25  1  0  0  0  0
  1 26  1  0  0  0  0
  2  3  1  0  0  0  0
  2  4  1  0  0  0  0
  2  5  1  0  0  0  0
  2 16  1  0  0  0  0
  2 20  1  0  0  0  0
  3 27  1  0  0  0  0
  3 28  1  0  0  0  0
  3 29  1  0  0  0  0
  4 30  1  0  0  0  0
  4 31  1  0  0  0  0
  4 32  1  0  0  0  0
  5  6  1  0  0  0  0
  5 15  1  0  0  0  0
  6  7  2  0  0  0  0
  7  8  1  0  0  0  0
  7 14  1  0  0  0  0
  8  9  1  0  0  0  0
  8 33  1  0  0  0  0
  8 34  1  0  0  0  0
  9 10  1  0  0  0  0
  9 35  1  0  0  0  0
  9 36  1  0  0  0  0
 10 11  1  0  0  0  0
 10 37  1  0  0  0  0
 10 38  1  0  0  0  0
 11 12  1  0  0  0  0
 11 39  1  0  0  0  0
 11 40  1  0  0  0  0
 12 13  1  0  0  0  0
 12 41  1  0  0  0  0
 12 42  1  0  0  0  0
 13 14  1  0  0  0  0
 13 43  1  0  0  0  0
 13 44  1  0  0  0  0
 14 15  2  0  0  0  0
 16 17  1  0  0  0  0
 16 18  1  0  0  0  0
 16 19  1  0  0  0  0
 17 45  1  0  0  0  0
 17 46  1  0  0  0  0
 17 47  1  0  0  0  0
 18 48  1  0  0  0  0
 18 49  1  0  0  0  0
 18 50  1  0  0  0  0
 19 51  1  0  0  0  0
 19 52  1  0  0  0  0
 19 53  1  0  0  0  0
 20 21  1  0  0  0  0
 20 22  1  0  0  0  0
 20 23  1  0  0  0  0
 21 54  1  0  0  0  0
 21 55  1  0  0  0  0
 21 56  1  0  0  0  0
 22 57  1  0  0  0  0
 22 58  1  0  0  0  0
 22 59  1  0  0  0  0
 23 60  1  0  0  0  0
 23 61  1  0  0  0  0
 23 62  1  0  0  0  0
M  END
$$$$
