
 OpenBabel09252515213D

 32 35  0  0  0  0  0  0  0  0999 V2000
    0.9762    0.1467    0.0638 O   0  0  0  0  0  0  0  0  0  0  0  0
    2.1995    0.1867    0.1280 C   0  0  0  0  0  0  0  0  0  0  0  0
    2.8423    1.3486    0.4192 N   0  0  0  0  0  0  0  0  0  0  0  0
    4.2182    1.5034    0.2858 C   0  0  0  0  0  0  0  0  0  0  0  0
    4.7521    2.7885    0.4359 C   0  0  0  0  0  0  0  0  0  0  0  0
    6.0915    3.0155    0.1469 C   0  0  0  0  0  0  0  0  0  0  0  0
    6.8654    1.9729   -0.3488 C   0  0  0  0  0  0  0  0  0  0  0  0
    6.3170    0.6900   -0.4911 C   0  0  0  0  0  0  0  0  0  0  0  0
    5.0047    0.4022   -0.0895 C   0  0  0  0  0  0  0  0  0  0  0  0
    4.4036   -0.9796   -0.0651 C   0  0  0  0  0  0  0  0  0  0  0  0
    3.0494   -1.0384   -0.0287 C   0  0  0  0  0  0  0  0  0  0  0  0
    2.2142   -2.2859   -0.0619 C   0  0  0  0  0  0  0  0  0  0  0  0
    2.9507   -3.6019   -0.2335 C   0  0  0  0  0  0  0  0  0  0  0  0
    4.4451   -3.5245   -0.1302 C   0  0  0  0  0  0  0  0  0  0  0  0
    5.1408   -4.7531   -0.1299 C   0  0  0  0  0  0  0  0  0  0  0  0
    6.5187   -4.7942    0.0261 C   0  0  0  0  0  0  0  0  0  0  0  0
    7.2057   -3.6097    0.2288 C   0  0  0  0  0  0  0  0  0  0  0  0
    6.5150   -2.3903    0.2429 C   0  0  0  0  0  0  0  0  0  0  0  0
    5.1322   -2.3006   -0.0034 C   0  0  0  0  0  0  0  0  0  0  0  0
    2.2464    2.1515    0.5647 H   0  0  0  0  0  0  0  0  0  0  0  0
    4.1272    3.6175    0.7562 H   0  0  0  0  0  0  0  0  0  0  0  0
    6.5170    4.0083    0.2659 H   0  0  0  0  0  0  0  0  0  0  0  0
    7.8995    2.1540   -0.6326 H   0  0  0  0  0  0  0  0  0  0  0  0
    6.9452   -0.0676   -0.9485 H   0  0  0  0  0  0  0  0  0  0  0  0
    1.6236   -2.3366    0.8631 H   0  0  0  0  0  0  0  0  0  0  0  0
    1.4835   -2.2095   -0.8790 H   0  0  0  0  0  0  0  0  0  0  0  0
    2.5862   -4.2927    0.5401 H   0  0  0  0  0  0  0  0  0  0  0  0
    2.6851   -4.0479   -1.1998 H   0  0  0  0  0  0  0  0  0  0  0  0
    4.5939   -5.6881   -0.2390 H   0  0  0  0  0  0  0  0  0  0  0  0
    7.0446   -5.7445    0.0214 H   0  0  0  0  0  0  0  0  0  0  0  0
    8.2804   -3.6256    0.3912 H   0  0  0  0  0  0  0  0  0  0  0  0
    7.1060   -1.5162    0.4886 H   0  0  0  0  0  0  0  0  0  0  0  0
  1  2  2  0  0  0  0
  2  3  1  0  0  0  0
  2 11  1  0  0  0  0
  3  4  1  0  0  0  0
  3 20  1  0  0  0  0
  4  5  1  0  0  0  0
  4  9  2  0  0  0  0
  5  6  2  0  0  0  0
  5 21  1  0  0  0  0
  6  7  1  0  0  0  0
  6 22  1  0  0  0  0
  7  8  2  0  0  0  0
  7 23  1  0  0  0  0
  8  9  1  0  0  0  0
  8 24  1  0  0  0  0
  9 10  1  0  0  0  0
 10 11  2  0  0  0  0
 10 19  1  0  0  0  0
 11 12  1  0  0  0  0
 12 13  1  0  0  0  0
 12 25  1  0  0  0  0
 12 26  1  0  0  0  0
 13 14  1  0  0  0  0
 13 27  1  0  0  0  0
 13 28  1  0  0  0  0
 14 15  1  0  0  0  0
 14 19  2  0  0  0  0
 15 16  2  0  0  0  0
 15 29  1  0  0  0  0
 16 17  1  0  0  0  0
 16 30  1  0  0  0  0
 17 18  2  0  0  0  0
 17 31  1  0  0  0  0
 18 19  1  0  0  0  0
 18 32  1  0  0  0  0
M  END
$$$$
