
  --CCDC--092525    3D                              

 53 52  0  0  0  0  0  0  0  0999 V2000
   -0.0134    0.0368    0.0579 C      0
    1.9462   -0.0023   -0.6999 Rh     0
    2.4905    2.4697    0.5398 I      0
    0.9231    1.2847   -2.9937 I      0
    1.5979   -1.8231   -1.6914 C      0
    1.4092   -2.8099   -2.2288 O      0
    4.2788    0.0730   -1.5365 P      0
    4.6430   -1.4136   -2.5154 C      0
    3.8951   -1.4794   -3.8424 C      0
    5.4627    0.1739   -0.1616 C      0
    6.9063    0.3161   -0.6254 C      0
    4.6353    1.5740   -2.4936 C      0
    4.2401    1.5601   -3.9631 C      0
    2.6751   -1.2983    1.2847 P      0
    1.2580   -2.0529    2.1180 C      0
    1.6735   -2.8672    3.3344 C      0
    3.4459   -0.1955    2.5001 C      0
    2.4075    0.5070    3.3673 C      0
    3.8207   -2.6402    0.8608 C      0
    3.1243   -3.9317    0.4584 C      0
   -0.5447    0.8867   -0.3635 H      0
    0.0140    0.1222    1.1388 H      0
   -0.5213   -0.8824   -0.2348 H      0
    4.3638   -2.2907   -1.9211 H      0
    5.7182   -1.4833   -2.7198 H      0
    3.7428   -2.5103   -4.1622 H      0
    2.9174   -1.0053   -3.7654 H      0
    4.4589   -0.9750   -4.6273 H      0
    5.4057   -0.7142    0.4735 H      0
    5.2132    1.0456    0.4578 H      0
    7.1740   -0.4722   -1.3243 H      0
    7.5860    0.2556    0.2212 H      0
    7.0699    1.2761   -1.1076 H      0
    5.7140    1.7641   -2.4705 H      0
    4.1587    2.4211   -1.9891 H      0
    3.3680    0.9429   -4.1418 H      0
    5.0464    1.1476   -4.5674 H      0
    4.0356    2.5679   -4.3238 H      0
    0.7271   -2.6976    1.4099 H      0
    0.5632   -1.2708    2.4409 H      0
    0.8043   -3.3313    3.7938 H      0
    2.1481   -2.2346    4.0827 H      0
    2.3731   -3.6570    3.0661 H      0
    4.0719    0.5449    1.9897 H      0
    4.0917   -0.7840    3.1637 H      0
    1.9764   -0.1874    4.0870 H      0
    1.5912    0.9113    2.7760 H      0
    2.8585    1.3270    3.9222 H      0
    4.4897   -2.3376    0.0451 H      0
    4.4336   -2.8541    1.7461 H      0
    2.7141   -3.8665   -0.5423 H      0
    2.3162   -4.1756    1.1445 H      0
    3.8332   -4.7574    0.4539 H      0
  1  2  1
  2  3  1
  2  4  1
  2  5  1
  5  6  3
  2  7  1
  7  8  1
  8  9  1
  7 10  1
 10 11  1
  7 12  1
 12 13  1
  2 14  1
 14 15  1
 15 16  1
 14 17  1
 17 18  1
 14 19  1
 19 20  1
  1 21  1
  1 22  1
  1 23  1
  8 24  1
  8 25  1
  9 26  1
  9 27  1
  9 28  1
 10 29  1
 10 30  1
 11 31  1
 11 32  1
 11 33  1
 12 34  1
 12 35  1
 13 36  1
 13 37  1
 13 38  1
 15 39  1
 15 40  1
 16 41  1
 16 42  1
 16 43  1
 17 44  1
 17 45  1
 18 46  1
 18 47  1
 18 48  1
 19 49  1
 19 50  1
 20 51  1
 20 52  1
 20 53  1
M  END
$$$$
