
     RDKit          3D

 57 60  0  0  0  0  0  0  0  0999 V2000
    3.0826    3.5819    2.2460 C   0  0  0  0  0  0  0  0  0  0  0  0
    2.7803    2.3530    1.6013 O   0  0  0  0  0  0  0  0  0  0  0  0
    3.6098    1.9556    0.5834 C   0  0  0  0  0  0  0  0  0  0  0  0
    4.8118    2.5888    0.2477 C   0  0  0  0  0  0  0  0  0  0  0  0
    5.5962    2.1087   -0.8048 C   0  0  0  0  0  0  0  0  0  0  0  0
    5.1901    0.9917   -1.5309 C   0  0  0  0  0  0  0  0  0  0  0  0
    3.9975    0.3504   -1.2045 C   0  0  0  0  0  0  0  0  0  0  0  0
    3.2078    0.8258   -0.1510 C   0  0  0  0  0  0  0  0  0  0  0  0
    1.9800    0.1457    0.1376 C   0  0  0  0  0  0  0  0  0  0  0  0
    0.9348   -0.4092    0.3487 C   0  0  0  0  0  0  0  0  0  0  0  0
   -0.3280   -1.0603    0.5628 C   0  0  0  0  0  0  0  0  0  0  0  0
   -1.2361   -1.1795   -0.4356 C   0  0  0  0  0  0  0  0  0  0  0  0
   -0.8025   -0.6373   -1.7317 N   0  0  0  0  0  0  0  0  0  0  0  0
   -0.9435    0.8028   -1.8711 C   0  0  0  0  0  0  0  0  0  0  0  0
   -2.0614    1.5183   -1.4225 C   0  0  0  0  0  0  0  0  0  0  0  0
   -2.1464    2.8954   -1.6382 C   0  0  0  0  0  0  0  0  0  0  0  0
   -1.1292    3.5602   -2.3197 C   0  0  0  0  0  0  0  0  0  0  0  0
   -0.0315    2.8490   -2.8006 C   0  0  0  0  0  0  0  0  0  0  0  0
    0.0522    1.4725   -2.5902 C   0  0  0  0  0  0  0  0  0  0  0  0
   -1.6357   -1.5460   -2.9465 S   0  0  0  0  0  0  0  0  0  0  0  0
   -2.2517   -0.6936   -3.9374 O   0  0  0  0  0  0  0  0  0  0  0  0
   -0.8545   -2.7127   -3.2951 O   0  0  0  0  0  0  0  0  0  0  0  0
   -2.8915   -2.1013   -1.8688 C   0  0  0  0  0  0  0  0  0  0  0  0
   -4.0940   -2.6543   -2.2873 C   0  0  0  0  0  0  0  0  0  0  0  0
   -5.0209   -2.9844   -1.3069 C   0  0  0  0  0  0  0  0  0  0  0  0
   -4.7319   -2.7308    0.0398 C   0  0  0  0  0  0  0  0  0  0  0  0
   -3.5099   -2.1529    0.4223 C   0  0  0  0  0  0  0  0  0  0  0  0
   -2.5546   -1.8485   -0.5385 C   0  0  0  0  0  0  0  0  0  0  0  0
   -0.4089   -1.7160    2.3289 Si  0  0  0  0  0  4  0  0  0  0  0  0
    1.2827   -1.5933    3.1953 C   0  0  0  0  0  0  0  0  0  0  0  0
   -0.8637   -3.5376    2.3681 C   0  0  0  0  0  0  0  0  0  0  0  0
   -1.5978   -0.6791    3.3526 C   0  0  0  0  0  0  0  0  0  0  0  0
    3.0977    4.4123    1.5332 H   0  0  0  0  0  0  0  0  0  0  0  0
    4.0258    3.5158    2.7979 H   0  0  0  0  0  0  0  0  0  0  0  0
    2.2885    3.7816    2.9705 H   0  0  0  0  0  0  0  0  0  0  0  0
    5.1709    3.4579    0.7888 H   0  0  0  0  0  0  0  0  0  0  0  0
    6.5275    2.6084   -1.0569 H   0  0  0  0  0  0  0  0  0  0  0  0
    5.8002    0.6197   -2.3494 H   0  0  0  0  0  0  0  0  0  0  0  0
    3.6819   -0.5209   -1.7754 H   0  0  0  0  0  0  0  0  0  0  0  0
   -2.8772    1.0242   -0.9069 H   0  0  0  0  0  0  0  0  0  0  0  0
   -3.0137    3.4456   -1.2833 H   0  0  0  0  0  0  0  0  0  0  0  0
   -1.1969    4.6319   -2.4861 H   0  0  0  0  0  0  0  0  0  0  0  0
    0.7559    3.3646   -3.3407 H   0  0  0  0  0  0  0  0  0  0  0  0
    0.9038    0.9177   -2.9763 H   0  0  0  0  0  0  0  0  0  0  0  0
   -4.3021   -2.8148   -3.3398 H   0  0  0  0  0  0  0  0  0  0  0  0
   -5.9757   -3.4236   -1.5852 H   0  0  0  0  0  0  0  0  0  0  0  0
   -5.4708   -2.9738    0.8003 H   0  0  0  0  0  0  0  0  0  0  0  0
   -3.3590   -1.9439    1.4719 H   0  0  0  0  0  0  0  0  0  0  0  0
    1.6027   -0.5494    3.2729 H   0  0  0  0  0  0  0  0  0  0  0  0
    1.2128   -2.0072    4.2060 H   0  0  0  0  0  0  0  0  0  0  0  0
    2.0387   -2.1584    2.6420 H   0  0  0  0  0  0  0  0  0  0  0  0
   -1.7937   -3.7593    1.8413 H   0  0  0  0  0  0  0  0  0  0  0  0
   -0.0633   -4.1294    1.9080 H   0  0  0  0  0  0  0  0  0  0  0  0
   -0.9747   -3.8772    3.4046 H   0  0  0  0  0  0  0  0  0  0  0  0
   -1.1264    0.2681    3.6305 H   0  0  0  0  0  0  0  0  0  0  0  0
   -2.5142   -0.4417    2.8097 H   0  0  0  0  0  0  0  0  0  0  0  0
   -1.8706   -1.2113    4.2692 H   0  0  0  0  0  0  0  0  0  0  0  0
  1  2  1  0
  2  3  1  0
  3  4  2  0
  4  5  1  0
  5  6  2  0
  6  7  1  0
  7  8  2  0
  8  9  1  0
  9 10  3  0
 10 11  1  0
 11 12  2  3
 12 13  1  0
 13 14  1  0
 14 15  2  0
 15 16  1  0
 16 17  2  0
 17 18  1  0
 18 19  2  0
 13 20  1  0
 20 21  2  0
 20 22  2  0
 20 23  1  0
 23 24  2  0
 24 25  1  0
 25 26  2  0
 26 27  1  0
 27 28  2  0
 11 29  1  0
 29 30  1  0
 29 31  1  0
 29 32  1  0
  8  3  1  0
 28 12  1  0
 19 14  1  0
 28 23  1  0
  1 33  1  0
  1 34  1  0
  1 35  1  0
  4 36  1  0
  5 37  1  0
  6 38  1  0
  7 39  1  0
 15 40  1  0
 16 41  1  0
 17 42  1  0
 18 43  1  0
 19 44  1  0
 24 45  1  0
 25 46  1  0
 26 47  1  0
 27 48  1  0
 30 49  1  0
 30 50  1  0
 30 51  1  0
 31 52  1  0
 31 53  1  0
 31 54  1  0
 32 55  1  0
 32 56  1  0
 32 57  1  0
M  END
