
  --CCDC--092525    3D                              

 45 50  0  0  0  0  0  0  0  0999 V2000
    4.8028   -2.2692   -4.6521 H      0
    5.7830   -2.3076   -4.1816 C      0
    6.2319   -3.2714   -4.4127 H      0
    6.4029   -1.5317   -4.6250 H      0
    5.6404   -2.0711   -2.3324 Si     0
    4.9817   -0.4498   -1.8751 C      0
    5.7687    0.3945   -1.0869 C      0
    6.9714    1.6502    0.0419 Cr     0
    5.0740    1.3018    0.7918 C      0
    4.0313    1.1054    1.2074 O      0
    5.3959    2.5673   -0.9372 C      0
    4.5291    3.0721   -1.4769 O      0
    7.6357    2.4661    1.6048 C      0
    6.4750    2.4282    1.5573 H      0
    7.9069    3.3283    0.3484 C      0
    7.1158    3.9495   -0.2865 H      0
    8.3603    2.5976   -0.8902 C      0
    7.7981    2.4885   -1.9369 H      0
    8.6034    1.1095   -0.8338 C      0
    8.0392    0.2569   -1.4487 H      0
    8.4144    0.3262    0.4470 C      0
    7.6257   -0.5458    0.6721 H      0
    7.9195    1.0090    1.5830 C      0
    6.8328    0.6119    1.4459 H      0
    3.3491    0.0386   -2.4865 Si     0
    2.5092   -1.3286   -3.4461 C      0
    2.9534   -1.4388   -4.4329 H      0
    1.4503   -1.1140   -3.5737 H      0
    2.5997   -2.2784   -2.9237 H      0
    2.1388    0.4896   -1.1344 C      0
    2.1197   -0.2791   -0.3646 H      0
    1.1327    0.5895   -1.5364 H      0
    2.4091    1.4309   -0.6625 H      0
    3.4152    1.4934   -3.6596 C      0
    2.9271    1.2499   -4.6010 H      0
    4.4426    1.7756   -3.8764 H      0
    2.9104    2.3566   -3.2309 H      0
    4.5724   -3.4785   -1.7210 C      0
    3.8639   -3.7864   -2.4872 H      0
    4.0102   -3.1813   -0.8384 H      0
    5.1833   -4.3397   -1.4586 H      0
    7.3463   -2.3835   -1.6337 C      0
    7.6956   -3.3788   -1.9003 H      0
    7.3382   -2.3068   -0.5484 H      0
    8.0609   -1.6594   -2.0190 H      0
  1  2  1
  2  3  1
  2  4  1
  2  5  1
  5  6  1
  6  7  4
  7  8  4
  8  9  1
  9 10  3
  8 11  1
 11 12  3
  8 13  1
 13 14  1
 13 15  4
  8 15  1
 15 16  1
 15 17  4
  8 17  1
 17 18  1
 17 19  4
  8 19  1
 19 20  1
 19 21  4
  8 21  1
 21 22  1
 21 23  4
 13 23  4
  8 23  1
 23 24  1
  6 25  1
 25 26  1
 26 27  1
 26 28  1
 26 29  1
 25 30  1
 30 31  1
 30 32  1
 30 33  1
 25 34  1
 34 35  1
 34 36  1
 34 37  1
  5 38  1
 38 39  1
 38 40  1
 38 41  1
  5 42  1
 42 43  1
 42 44  1
 42 45  1
M  END
$$$$
