
     RDKit          3D

 42 41  0  0  0  0  0  0  0  0999 V2000
   -0.8238    1.3277   -0.8992 C   0  0  0  0  0  0  0  0  0  0  0  0
    0.0212    0.4947    0.5078 Pt  0  0  0  0  0  6  0  0  0  0  0  0
   -0.9079    1.3410    2.0612 C   0  0  0  0  0  0  0  0  0  0  0  0
    0.8502   -0.7258    1.5645 C   0  0  0  0  0  0  0  0  0  0  0  0
    1.2505    1.9204    0.9433 N   0  0  0  0  0  0  0  0  0  0  0  0
    1.1006    3.0691    0.7722 N   0  0  0  0  0  4  0  0  0  0  0  0
    1.1065    4.2442    0.5361 N   0  0  0  0  0  2  0  0  0  0  0  0
   -1.5797   -0.9349    0.1695 P   0  0  0  0  0  4  0  0  0  0  0  0
   -3.2065   -0.1299    0.2381 C   0  0  0  0  0  0  0  0  0  0  0  0
   -1.3417   -1.8747   -1.2363 C   0  0  0  0  0  0  0  0  0  0  0  0
   -1.8083   -2.0011    1.6204 C   0  0  0  0  0  0  0  0  0  0  0  0
    1.6413    0.2757   -0.6796 P   0  0  0  0  0  4  0  0  0  0  0  0
    3.3274   -0.0777   -0.0351 C   0  0  0  0  0  0  0  0  0  0  0  0
    1.9740    1.4254   -2.0533 C   0  0  0  0  0  0  0  0  0  0  0  0
    1.4268   -1.2619   -1.6776 C   0  0  0  0  0  0  0  0  0  0  0  0
   -0.4440    2.3805   -1.1959 H   0  0  0  0  0  0  0  0  0  0  0  0
   -0.9640    0.9902   -1.9242 H   0  0  0  0  0  0  0  0  0  0  0  0
   -1.8287    1.8410   -0.6845 H   0  0  0  0  0  0  0  0  0  0  0  0
   -1.7392    0.7328    2.3540 H   0  0  0  0  0  0  0  0  0  0  0  0
   -1.4399    2.2706    1.7859 H   0  0  0  0  0  0  0  0  0  0  0  0
   -0.4376    1.4565    3.0169 H   0  0  0  0  0  0  0  0  0  0  0  0
    1.1484   -1.7843    1.2495 H   0  0  0  0  0  0  0  0  0  0  0  0
    0.2792   -1.1639    2.4730 H   0  0  0  0  0  0  0  0  0  0  0  0
    1.7020   -0.4865    2.2311 H   0  0  0  0  0  0  0  0  0  0  0  0
   -3.3746    0.5766   -0.6191 H   0  0  0  0  0  0  0  0  0  0  0  0
   -3.3742    0.3581    1.2037 H   0  0  0  0  0  0  0  0  0  0  0  0
   -3.9072   -0.9266    0.0879 H   0  0  0  0  0  0  0  0  0  0  0  0
   -1.4755   -1.2252   -2.1573 H   0  0  0  0  0  0  0  0  0  0  0  0
   -2.3650   -2.4233   -1.3193 H   0  0  0  0  0  0  0  0  0  0  0  0
   -0.6590   -2.6936   -1.3097 H   0  0  0  0  0  0  0  0  0  0  0  0
   -0.8610   -2.6193    1.6657 H   0  0  0  0  0  0  0  0  0  0  0  0
   -2.5656   -2.6739    1.2750 H   0  0  0  0  0  0  0  0  0  0  0  0
   -2.0425   -1.4736    2.5395 H   0  0  0  0  0  0  0  0  0  0  0  0
    3.2581   -0.9712    0.5895 H   0  0  0  0  0  0  0  0  0  0  0  0
    3.5886    0.7969    0.5964 H   0  0  0  0  0  0  0  0  0  0  0  0
    3.9255   -0.2368   -0.9019 H   0  0  0  0  0  0  0  0  0  0  0  0
    1.0873    1.3755   -2.7515 H   0  0  0  0  0  0  0  0  0  0  0  0
    2.0583    2.4573   -1.6662 H   0  0  0  0  0  0  0  0  0  0  0  0
    2.8066    1.0146   -2.5677 H   0  0  0  0  0  0  0  0  0  0  0  0
    0.7119   -1.1635   -2.4705 H   0  0  0  0  0  0  0  0  0  0  0  0
    2.3983   -1.3647   -2.2866 H   0  0  0  0  0  0  0  0  0  0  0  0
    1.4833   -2.1368   -1.0457 H   0  0  0  0  0  0  0  0  0  0  0  0
  1  2  1  0
  2  3  1  0
  2  4  1  0
  2  5  1  0
  5  6  2  0
  6  7  2  0
  2  8  1  0
  8  9  1  0
  8 10  1  0
  8 11  1  0
  2 12  1  0
 12 13  1  0
 12 14  1  0
 12 15  1  0
  1 16  1  0
  1 17  1  0
  1 18  1  0
  3 19  1  0
  3 20  1  0
  3 21  1  0
  4 22  1  0
  4 23  1  0
  4 24  1  0
  9 25  1  0
  9 26  1  0
  9 27  1  0
 10 28  1  0
 10 29  1  0
 10 30  1  0
 11 31  1  0
 11 32  1  0
 11 33  1  0
 13 34  1  0
 13 35  1  0
 13 36  1  0
 14 37  1  0
 14 38  1  0
 14 39  1  0
 15 40  1  0
 15 41  1  0
 15 42  1  0
M  CHG  2   6   1   7  -1
M  RAD  2   8   2  12   2
M  END
