
  --CCDC--092525    3D                              

 53 52  0  0  0  0  0  0  0  0999 V2000
   -0.0049   -0.0068   -0.0081 C      0
    1.9666    0.0185   -0.7285 Rh     0
    4.6255    0.4124   -1.5969 I      0
    1.4252    2.4386   -2.0716 I      0
    2.5427    1.0463    1.0120 C      0
    2.8554    1.6041    1.9565 O      0
    1.2529   -1.2183   -2.7620 P      0
   -0.4543   -0.7665   -3.1602 C      0
   -0.9775   -1.4839   -4.3959 C      0
    2.3653   -0.7834   -4.1257 C      0
    2.0257   -1.5046   -5.4246 C      0
    1.2399   -3.0262   -2.5988 C      0
   -0.0873   -3.6111   -2.1436 C      0
    2.4657   -2.1145    0.4592 P      0
    0.9414   -3.0788    0.7021 C      0
    0.5021   -3.2800    2.1493 C      0
    3.0564   -1.7539    2.1334 C      0
    3.5398   -2.9904    2.8884 C      0
    3.7398   -3.2021   -0.2582 C      0
    4.3910   -2.7957   -1.5728 C      0
   -0.4885    0.9176   -0.3099 H      0
   -0.0006   -0.0722    1.0766 H      0
   -0.5467   -0.8398   -0.4377 H      0
   -0.5404    0.3187   -3.2999 H      0
   -1.0861   -1.0380   -2.3040 H      0
   -2.0632   -1.5221   -4.3889 H      0
   -0.6084   -2.5026   -4.4497 H      0
   -0.6680   -0.9750   -5.3015 H      0
    3.3859   -1.0519   -3.8264 H      0
    2.3466    0.3016   -4.2969 H      0
    1.4209   -0.8753   -6.0735 H      0
    1.4761   -2.4238   -5.2330 H      0
    2.9337   -1.7613   -5.9655 H      0
    1.9981   -3.3343   -1.8860 H      0
    1.5060   -3.4890   -3.5547 H      0
   -0.6840   -3.9528   -2.9837 H      0
   -0.6706   -2.8779   -1.5939 H      0
    0.0923   -4.4652   -1.4946 H      0
    1.0402   -4.0564    0.2146 H      0
    0.1254   -2.5655    0.1923 H      0
    1.1069   -4.0319    2.6471 H      0
   -0.5294   -3.6231    2.1876 H      0
    0.5665   -2.3543    2.7187 H      0
    3.8909   -1.0471    2.0563 H      0
    2.2589   -1.2655    2.7091 H      0
    2.8682   -3.2470    3.7024 H      0
    3.6188   -3.8613    2.2439 H      0
    4.5198   -2.8081    3.3217 H      0
    3.2683   -4.1806   -0.4175 H      0
    4.5448   -3.3583    0.4679 H      0
    4.6294   -3.6791   -2.1597 H      0
    5.3270   -2.2728   -1.3971 H      0
    3.7332   -2.1609   -2.1664 H      0
  1  2  1
  2  3  1
  2  4  1
  2  5  1
  5  6  3
  2  7  1
  7  8  1
  8  9  1
  7 10  1
 10 11  1
  7 12  1
 12 13  1
  2 14  1
 14 15  1
 15 16  1
 14 17  1
 17 18  1
 14 19  1
 19 20  1
  1 21  1
  1 22  1
  1 23  1
  8 24  1
  8 25  1
  9 26  1
  9 27  1
  9 28  1
 10 29  1
 10 30  1
 11 31  1
 11 32  1
 11 33  1
 12 34  1
 12 35  1
 13 36  1
 13 37  1
 13 38  1
 15 39  1
 15 40  1
 16 41  1
 16 42  1
 16 43  1
 17 44  1
 17 45  1
 18 46  1
 18 47  1
 18 48  1
 19 49  1
 19 50  1
 20 51  1
 20 52  1
 20 53  1
M  END
$$$$
