
 OpenBabel09252513123D

 26 26  0  0  0  0  0  0  0  0999 V2000
    0.9418   -0.1353   -0.0482 C   0  0  0  0  0  0  0  0  0  0  0  0
    0.3280   -0.1287    1.3487 C   0  0  0  0  0  0  0  0  0  0  0  0
    0.9809    0.8804    2.2855 C   0  0  0  0  0  0  0  0  0  0  0  0
   -1.1094    0.0227    1.3344 O   0  0  0  0  0  0  0  0  0  0  0  0
   -1.6611    1.1226    0.7719 C   0  0  0  0  0  0  0  0  0  0  0  0
   -1.0819    2.0402    0.2165 O   0  0  0  0  0  0  0  0  0  0  0  0
   -3.1392    1.0488    0.8782 C   0  0  0  0  0  0  0  0  0  0  0  0
   -3.9085    1.7000   -0.0968 C   0  0  0  0  0  0  0  0  0  0  0  0
   -5.3046    1.6761   -0.0259 C   0  0  0  0  0  0  0  0  0  0  0  0
   -5.9302    1.0082    1.0358 C   0  0  0  0  0  0  0  0  0  0  0  0
   -5.1684    0.3608    2.0195 C   0  0  0  0  0  0  0  0  0  0  0  0
   -3.7719    0.3807    1.9367 C   0  0  0  0  0  0  0  0  0  0  0  0
   -7.3965    0.9926    1.1228 N   0  0  0  0  0  0  0  0  0  0  0  0
   -8.0337    1.5298    0.2061 O   0  0  0  0  0  0  0  0  0  0  0  0
   -7.9086    0.4430    2.1083 O   0  0  0  0  0  0  0  0  0  0  0  0
    0.9282    0.8563   -0.5099 H   0  0  0  0  0  0  0  0  0  0  0  0
    0.3870   -0.8081   -0.7101 H   0  0  0  0  0  0  0  0  0  0  0  0
    1.9858   -0.4628   -0.0096 H   0  0  0  0  0  0  0  0  0  0  0  0
    0.4953   -1.1253    1.7749 H   0  0  0  0  0  0  0  0  0  0  0  0
    0.8624    1.9068    1.9256 H   0  0  0  0  0  0  0  0  0  0  0  0
    0.5148    0.8351    3.2757 H   0  0  0  0  0  0  0  0  0  0  0  0
    2.0510    0.6784    2.3943 H   0  0  0  0  0  0  0  0  0  0  0  0
   -3.4199    2.2264   -0.9160 H   0  0  0  0  0  0  0  0  0  0  0  0
   -5.8827    2.1834   -0.7962 H   0  0  0  0  0  0  0  0  0  0  0  0
   -5.6424   -0.1553    2.8527 H   0  0  0  0  0  0  0  0  0  0  0  0
   -3.1859   -0.1139    2.7089 H   0  0  0  0  0  0  0  0  0  0  0  0
  1  2  1  0  0  0  0
  1 16  1  0  0  0  0
  1 17  1  0  0  0  0
  1 18  1  0  0  0  0
  2  3  1  0  0  0  0
  2  4  1  0  0  0  0
  2 19  1  0  0  0  0
  3 20  1  0  0  0  0
  3 21  1  0  0  0  0
  3 22  1  0  0  0  0
  4  5  1  0  0  0  0
  5  6  2  0  0  0  0
  5  7  1  0  0  0  0
  7  8  1  0  0  0  0
  7 12  2  0  0  0  0
  8  9  2  0  0  0  0
  8 23  1  0  0  0  0
  9 10  1  0  0  0  0
  9 24  1  0  0  0  0
 10 11  2  0  0  0  0
 10 13  1  0  0  0  0
 11 12  1  0  0  0  0
 11 25  1  0  0  0  0
 12 26  1  0  0  0  0
 13 14  2  0  0  0  0
 13 15  2  0  0  0  0
M  END
$$$$
