
     RDKit          3D

  0  0  0  0  0  0  0  0  0  0999 V3000
M  V30 BEGIN CTAB
M  V30 COUNTS 47 52 0 0 0
M  V30 BEGIN ATOM
M  V30 1 C 3.051147 0.247155 1.997017 0
M  V30 2 C 2.739958 -0.057914 0.606555 0
M  V30 3 N 2.551442 -1.377718 0.319388 0
M  V30 4 C 2.348782 -2.648719 -0.050521 0
M  V30 5 C 1.831374 -2.662545 -1.500059 0
M  V30 6 C 0.389230 -3.094579 -1.390520 0
M  V30 7 N -0.372738 -2.101648 -0.727674 0
M  V30 8 C -1.151242 -1.339397 -0.154256 0
M  V30 9 C -1.978160 -0.352845 0.526887 0
M  V30 10 C -1.267263 0.554982 1.347940 0
M  V30 11 O 0.033424 0.165942 1.281527 0
M  V30 12 Cu 0.744421 -0.421218 -0.175788 0 VAL=4
M  V30 13 O 1.151613 0.521001 -1.603478 0
M  V30 14 C 2.145665 1.481120 -1.418933 0
M  V30 15 C 2.348053 2.570137 -2.218722 0
M  V30 16 C 3.395266 3.404705 -1.860139 0
M  V30 17 C 4.171929 3.129506 -0.755709 0
M  V30 18 C 3.942418 2.034942 0.020647 0
M  V30 19 C 2.884733 1.126787 -0.282168 0
M  V30 20 C -1.855867 1.609487 2.053437 0
M  V30 21 C -3.206492 1.615993 1.821387 0
M  V30 22 C -3.988528 0.801545 1.059462 0
M  V30 23 C -5.342773 0.951077 0.931986 0
M  V30 24 C -6.084560 0.097798 0.142098 0
M  V30 25 C -5.461377 -0.945727 -0.551855 0
M  V30 26 C -4.109180 -1.047120 -0.387817 0
M  V30 27 C -3.350432 -0.209670 0.395554 0
M  V30 28 H 2.247359 -0.198032 2.656149 0
M  V30 29 H 4.008728 -0.145033 2.371620 0
M  V30 30 H 3.018017 1.324633 2.278638 0
M  V30 31 H 3.333863 -3.275371 -0.113784 0
M  V30 32 H 1.729204 -3.248973 0.596965 0
M  V30 33 H 1.836191 -1.624402 -1.855652 0
M  V30 34 H 2.457218 -3.269963 -2.121057 0
M  V30 35 H 0.005009 -3.284611 -2.402996 0
M  V30 36 H 0.380615 -4.113615 -0.882636 0
M  V30 37 H -1.945453 -2.136196 -0.046421 0
M  V30 38 H 1.673859 2.681865 -3.054128 0
M  V30 39 H 3.537286 4.256288 -2.503221 0
M  V30 40 H 4.991567 3.820289 -0.517555 0
M  V30 41 H 4.610391 1.884299 0.882318 0
M  V30 42 H -1.204917 2.207203 2.629117 0
M  V30 43 H -3.666908 2.412331 2.348695 0
M  V30 44 H -5.734892 1.785674 1.505841 0
M  V30 45 H -7.157494 0.305115 0.106889 0
M  V30 46 H -6.065787 -1.595496 -1.162209 0
M  V30 47 H -3.614698 -1.839083 -0.924099 0
M  V30 END ATOM
M  V30 BEGIN BOND
M  V30 1 1 1 2
M  V30 2 2 2 3
M  V30 3 1 3 4
M  V30 4 1 4 5
M  V30 5 1 5 6
M  V30 6 1 6 7
M  V30 7 2 7 8
M  V30 8 1 8 9
M  V30 9 2 9 10
M  V30 10 1 10 11
M  V30 11 1 11 12
M  V30 12 1 12 13
M  V30 13 1 13 14
M  V30 14 2 14 15
M  V30 15 1 15 16
M  V30 16 2 16 17
M  V30 17 1 17 18
M  V30 18 2 18 19
M  V30 19 1 10 20
M  V30 20 2 20 21
M  V30 21 1 21 22
M  V30 22 2 22 23
M  V30 23 1 23 24
M  V30 24 2 24 25
M  V30 25 1 25 26
M  V30 26 2 26 27
M  V30 27 1 19 2
M  V30 28 1 27 22
M  V30 29 9 3 12
M  V30 30 1 19 14
M  V30 31 9 7 12
M  V30 32 1 27 9
M  V30 33 1 1 28
M  V30 34 1 1 29
M  V30 35 1 1 30
M  V30 36 1 4 31
M  V30 37 1 4 32
M  V30 38 1 5 33
M  V30 39 1 5 34
M  V30 40 1 6 35
M  V30 41 1 6 36
M  V30 42 1 8 37
M  V30 43 1 15 38
M  V30 44 1 16 39
M  V30 45 1 17 40
M  V30 46 1 18 41
M  V30 47 1 20 42
M  V30 48 1 21 43
M  V30 49 1 23 44
M  V30 50 1 24 45
M  V30 51 1 25 46
M  V30 52 1 26 47
M  V30 END BOND
M  V30 END CTAB
M  END
