
 OpenBabel09252514423D

 49 54  0  0  0  0  0  0  0  0999 V2000
    1.0117    0.0666    0.0737 C   0  0  0  0  0  0  0  0  0  0  0  0
    0.5050   -1.2842   -0.4049 C   0  0  0  0  0  0  0  0  0  0  0  0
    0.8229   -1.7183   -1.6055 N   0  0  0  0  0  0  0  0  0  0  0  0
    1.6680   -0.8969   -2.4842 C   0  0  0  0  0  0  0  0  0  0  0  0
    2.9347   -1.6628   -2.8295 C   0  0  0  0  0  0  0  0  0  0  0  0
    2.5675   -2.9542   -3.5423 C   0  0  0  0  0  0  0  0  0  0  0  0
    1.8325   -2.6409   -4.7762 N   0  0  0  0  0  0  0  0  0  0  0  0
    1.2998   -3.6091   -5.4966 C   0  0  0  0  0  0  0  0  0  0  0  0
    0.6734   -3.3174   -6.6360 C   0  0  0  0  0  0  0  0  0  0  0  0
    0.5887   -1.9787   -7.0765 C   0  0  0  0  0  0  0  0  0  0  0  0
    1.1338   -1.0069   -6.3357 O   0  0  0  0  0  0  0  0  0  0  0  0
    1.7413   -1.3044   -5.2054 Cu  0  0  0  0  0  0  0  0  0  0  0  0
    3.5964   -0.6306   -5.3632 O   0  0  0  0  0  0  0  0  0  0  0  0
    4.5087   -0.8042   -4.2889 C   0  0  0  0  0  0  0  0  0  0  0  0
    4.8423   -2.1070   -3.8246 C   0  0  0  0  0  0  0  0  0  0  0  0
    5.5090   -2.2512   -2.5969 C   0  0  0  0  0  0  0  0  0  0  0  0
    6.0553   -1.2172   -2.0278 C   0  0  0  0  0  0  0  0  0  0  0  0
    5.9893    0.0399   -2.6432 C   0  0  0  0  0  0  0  0  0  0  0  0
    5.0764    0.2523   -3.7047 C   0  0  0  0  0  0  0  0  0  0  0  0
   -0.0867   -1.6750   -8.2803 C   0  0  0  0  0  0  0  0  0  0  0  0
   -0.6570   -2.6393   -9.0319 C   0  0  0  0  0  0  0  0  0  0  0  0
   -0.6016   -3.9990   -8.6489 C   0  0  0  0  0  0  0  0  0  0  0  0
   -1.1966   -4.9956   -9.4358 C   0  0  0  0  0  0  0  0  0  0  0  0
   -1.1285   -6.2997   -9.0410 C   0  0  0  0  0  0  0  0  0  0  0  0
   -0.4770   -6.6574   -7.8663 C   0  0  0  0  0  0  0  0  0  0  0  0
    0.1115   -5.7106   -7.0779 C   0  0  0  0  0  0  0  0  0  0  0  0
    0.0598   -4.3672   -7.4551 C   0  0  0  0  0  0  0  0  0  0  0  0
    0.6550    0.2502    1.0657 H   0  0  0  0  0  0  0  0  0  0  0  0
    0.6551    0.8338   -0.5813 H   0  0  0  0  0  0  0  0  0  0  0  0
    2.0817    0.0666    0.0737 H   0  0  0  0  0  0  0  0  0  0  0  0
    0.4829   -2.6247   -1.9267 H   0  0  0  0  0  0  0  0  0  0  0  0
    1.1330   -0.6688   -3.3823 H   0  0  0  0  0  0  0  0  0  0  0  0
    1.9265    0.0122   -1.9824 H   0  0  0  0  0  0  0  0  0  0  0  0
    3.5498   -1.0649   -3.4691 H   0  0  0  0  0  0  0  0  0  0  0  0
    3.4697   -1.8909   -1.9314 H   0  0  0  0  0  0  0  0  0  0  0  0
    3.4591   -3.4933   -3.7854 H   0  0  0  0  0  0  0  0  0  0  0  0
    1.9523   -3.5520   -2.9027 H   0  0  0  0  0  0  0  0  0  0  0  0
    2.1500   -1.8484   -4.2180 H   0  0  0  0  0  0  0  0  0  0  0  0
    1.3705   -4.6247   -5.1673 H   0  0  0  0  0  0  0  0  0  0  0  0
    4.5878   -2.9689   -4.4054 H   0  0  0  0  0  0  0  0  0  0  0  0
    5.5673   -3.2119   -2.1295 H   0  0  0  0  0  0  0  0  0  0  0  0
    6.5559   -1.3266   -1.0884 H   0  0  0  0  0  0  0  0  0  0  0  0
    6.6250    0.8348   -2.3130 H   0  0  0  0  0  0  0  0  0  0  0  0
   -0.1471   -0.6566   -8.6030 H   0  0  0  0  0  0  0  0  0  0  0  0
   -1.1614   -2.3696   -9.9362 H   0  0  0  0  0  0  0  0  0  0  0  0
   -1.7020   -4.7343  -10.3420 H   0  0  0  0  0  0  0  0  0  0  0  0
   -1.5830   -7.0578   -9.6440 H   0  0  0  0  0  0  0  0  0  0  0  0
   -0.4361   -7.6866   -7.5766 H   0  0  0  0  0  0  0  0  0  0  0  0
    0.6099   -5.9968   -6.1753 H   0  0  0  0  0  0  0  0  0  0  0  0
  1  2  1  0  0  0  0
  1 28  1  0  0  0  0
  1 29  1  0  0  0  0
  1 30  1  0  0  0  0
  2  3  2  0  0  0  0
  2 19  1  0  0  0  0
  3  4  1  0  0  0  0
  3 12  1  0  0  0  0
  3 31  1  0  0  0  0
  4  5  1  0  0  0  0
  4 32  1  0  0  0  0
  4 33  1  0  0  0  0
  5  6  1  0  0  0  0
  5 34  1  0  0  0  0
  5 35  1  0  0  0  0
  6  7  1  0  0  0  0
  6 36  1  0  0  0  0
  6 37  1  0  0  0  0
  7  8  2  0  0  0  0
  7 12  1  0  0  0  0
  7 38  1  0  0  0  0
  8  9  1  0  0  0  0
  8 39  1  0  0  0  0
  9 10  1  0  0  0  0
  9 27  2  0  0  0  0
 10 11  1  0  0  0  0
 10 20  2  0  0  0  0
 11 12  1  0  0  0  0
 12 13  1  0  0  0  0
 13 14  1  0  0  0  0
 14 15  1  0  0  0  0
 14 19  2  0  0  0  0
 15 16  2  0  0  0  0
 15 40  1  0  0  0  0
 16 17  1  0  0  0  0
 16 41  1  0  0  0  0
 17 18  2  0  0  0  0
 17 42  1  0  0  0  0
 18 19  1  0  0  0  0
 18 43  1  0  0  0  0
 20 21  1  0  0  0  0
 20 44  1  0  0  0  0
 21 22  2  0  0  0  0
 21 45  1  0  0  0  0
 22 23  1  0  0  0  0
 22 27  1  0  0  0  0
 23 24  2  0  0  0  0
 23 46  1  0  0  0  0
 24 25  1  0  0  0  0
 24 47  1  0  0  0  0
 25 26  2  0  0  0  0
 25 48  1  0  0  0  0
 26 27  1  0  0  0  0
 26 49  1  0  0  0  0
M  END
$$$$
