
 OpenBabel09252517013D

 87103  0  0  0  0  0  0  0  0999 V2000
    0.8180    1.0620   -0.2230 H   0  0  0  0  0  0  0  0  0  0  0  0
    1.8030   -0.0000    0.2970 Ru  0  0  0  0  0  0  0  0  0  0  0  0
    0.8190   -1.0620   -0.2240 Cl  0  0  0  0  0  2  0  0  0  0  0  0
   -0.2760   -0.0000   -0.0710 Ru  0  0  0  0  0  0  0  0  0  0  0  0
    1.6412   -2.3987   -0.4910 P   0  3  0  0  0  0  0  0  0  0  0  0
    3.3221   -3.1073   -0.6376 C   0  0  0  0  0  0  0  0  0  0  0  0
    3.7601   -3.5723   -1.8666 C   0  0  0  0  0  0  0  0  0  0  0  0
    4.9384   -4.3526   -1.7975 C   0  0  0  0  0  0  0  0  0  0  0  0
    5.7692   -4.3652   -0.7711 C   0  0  0  0  0  0  0  0  0  0  0  0
    5.3014   -3.8293    0.3966 C   0  0  0  0  0  0  0  0  0  0  0  0
    4.0989   -3.1658    0.4377 C   0  0  0  0  0  0  0  0  0  0  0  0
    0.6715   -3.3734    0.7166 C   0  0  0  0  0  0  0  0  0  0  0  0
    1.1731   -4.5338    1.2827 C   0  0  0  0  0  0  0  0  0  0  0  0
    0.1812   -5.3750    1.8399 C   0  0  0  0  0  0  0  0  0  0  0  0
   -1.0447   -4.9885    2.1432 C   0  0  0  0  0  0  0  0  0  0  0  0
   -1.4574   -3.7999    1.6081 C   0  0  0  0  0  0  0  0  0  0  0  0
   -0.5787   -2.9839    0.9373 C   0  0  0  0  0  0  0  0  0  0  0  0
   -1.4770   -0.0000    0.8690 C   0  0  0  0  0  0  0  0  0  0  0  0
   -2.0468    0.0000    2.2782 C   0  0  0  0  0  0  0  0  0  0  0  0
   -1.6880    0.0000   -0.6480 C   0  0  0  0  0  0  0  0  0  0  0  0
   -2.6206    0.0000   -1.8483 C   0  0  0  0  0  0  0  0  0  0  0  0
    0.6081   -2.9114    4.3463 C   0  0  0  0  0  0  0  0  0  0  0  0
   -0.3806   -2.4427    5.4014 C   0  0  0  0  0  0  0  0  0  0  0  0
    0.5249   -2.3646    2.9305 C   0  0  0  0  0  0  0  0  0  0  0  0
    1.5136   -2.8333    1.8754 C   0  0  0  0  0  0  0  0  0  0  0  0
   -0.4344   -1.4557    2.6076 C   0  0  0  0  0  0  0  0  0  0  0  0
   -1.4231   -0.9870    3.6627 C   0  0  0  0  0  0  0  0  0  0  0  0
   -0.5177   -0.9089    1.1918 C   0  0  0  0  0  0  0  0  0  0  0  0
    0.4710   -1.3776    0.1368 C   0  0  0  0  0  0  0  0  0  0  0  0
    2.5119   -1.1989   -1.4317 C   0  0  0  0  0  0  0  0  0  0  0  0
    3.7844   -0.5695   -0.8885 C   0  0  0  0  0  0  0  0  0  0  0  0
    2.0748   -2.5932   -1.4521 C   0  0  0  0  0  0  0  0  0  0  0  0
    1.3471   -3.1650   -0.2463 C   0  0  0  0  0  0  0  0  0  0  0  0
    2.2992   -3.3597   -2.4921 C   0  0  0  0  0  0  0  0  0  0  0  0
    1.8455   -4.8103   -2.5157 C   0  0  0  0  0  0  0  0  0  0  0  0
    3.0924   -2.6899   -3.7734 C   0  0  0  0  0  0  0  0  0  0  0  0
    3.3998   -3.4941   -5.0261 C   0  0  0  0  0  0  0  0  0  0  0  0
    3.5135   -1.1917   -3.6413 C   0  0  0  0  0  0  0  0  0  0  0  0
    4.2506   -0.4877   -4.7689 C   0  0  0  0  0  0  0  0  0  0  0  0
    3.2166   -0.5580   -2.5374 C   0  0  0  0  0  0  0  0  0  0  0  0
    3.6202    0.9009   -2.4001 C   0  0  0  0  0  0  0  0  0  0  0  0
    3.2533   -3.3607   -2.7849 H   0  0  0  0  0  0  0  0  0  0  0  0
    5.1726   -4.9758   -2.6352 H   0  0  0  0  0  0  0  0  0  0  0  0
    6.7555   -4.7728   -0.8491 H   0  0  0  0  0  0  0  0  0  0  0  0
    5.8800   -3.9281    1.2912 H   0  0  0  0  0  0  0  0  0  0  0  0
    3.7856   -2.6920    1.3445 H   0  0  0  0  0  0  0  0  0  0  0  0
    2.2160   -4.7724    1.2973 H   0  0  0  0  0  0  0  0  0  0  0  0
    0.4425   -6.3953    2.0288 H   0  0  0  0  0  0  0  0  0  0  0  0
   -1.6807   -5.5741    2.7736 H   0  0  0  0  0  0  0  0  0  0  0  0
   -2.4793   -3.5008    1.7133 H   0  0  0  0  0  0  0  0  0  0  0  0
   -0.9047   -2.0260    0.5895 H   0  0  0  0  0  0  0  0  0  0  0  0
   -2.6481    0.8736    2.4197 H   0  0  0  0  0  0  0  0  0  0  0  0
   -2.6481   -0.8737    2.4197 H   0  0  0  0  0  0  0  0  0  0  0  0
   -1.2453    0.0000    2.9870 H   0  0  0  0  0  0  0  0  0  0  0  0
   -3.2377   -0.8736   -1.8205 H   0  0  0  0  0  0  0  0  0  0  0  0
   -3.2377    0.8737   -1.8205 H   0  0  0  0  0  0  0  0  0  0  0  0
   -2.0428    0.0000   -2.7489 H   0  0  0  0  0  0  0  0  0  0  0  0
   -0.2922   -1.3838    5.5276 H   0  0  0  0  0  0  0  0  0  0  0  0
   -1.3755   -2.6829    5.0896 H   0  0  0  0  0  0  0  0  0  0  0  0
   -0.1700   -2.9313    6.3297 H   0  0  0  0  0  0  0  0  0  0  0  0
    0.9826   -3.2935    1.0685 H   0  0  0  0  0  0  0  0  0  0  0  0
    2.0660   -1.9945    1.5065 H   0  0  0  0  0  0  0  0  0  0  0  0
    2.1882   -3.5420    2.3086 H   0  0  0  0  0  0  0  0  0  0  0  0
   -1.3348    0.0719    3.7890 H   0  0  0  0  0  0  0  0  0  0  0  0
   -2.4181   -1.2272    3.3509 H   0  0  0  0  0  0  0  0  0  0  0  0
   -1.2125   -1.4756    4.5910 H   0  0  0  0  0  0  0  0  0  0  0  0
   -0.0599   -1.8378   -0.6702 H   0  0  0  0  0  0  0  0  0  0  0  0
    1.0234   -0.5388   -0.2321 H   0  0  0  0  0  0  0  0  0  0  0  0
    1.1456   -2.0863    0.5699 H   0  0  0  0  0  0  0  0  0  0  0  0
    3.6991    0.4964   -0.9256 H   0  0  0  0  0  0  0  0  0  0  0  0
    3.9317   -0.8805    0.1247 H   0  0  0  0  0  0  0  0  0  0  0  0
    4.6182   -0.8815   -1.4821 H   0  0  0  0  0  0  0  0  0  0  0  0
    0.3749   -3.5000   -0.5423 H   0  0  0  0  0  0  0  0  0  0  0  0
    1.9036   -3.9893    0.1482 H   0  0  0  0  0  0  0  0  0  0  0  0
    1.2504   -2.4082    0.5039 H   0  0  0  0  0  0  0  0  0  0  0  0
    2.3110   -5.3427   -1.7127 H   0  0  0  0  0  0  0  0  0  0  0  0
    0.7823   -4.8533   -2.4032 H   0  0  0  0  0  0  0  0  0  0  0  0
    2.1239   -5.2559   -3.4478 H   0  0  0  0  0  0  0  0  0  0  0  0
    4.0142   -4.3320   -4.7703 H   0  0  0  0  0  0  0  0  0  0  0  0
    2.4856   -3.8415   -5.4602 H   0  0  0  0  0  0  0  0  0  0  0  0
    3.9160   -2.8749   -5.7297 H   0  0  0  0  0  0  0  0  0  0  0  0
    5.1749   -0.9918   -4.9602 H   0  0  0  0  0  0  0  0  0  0  0  0
    3.6474   -0.5014   -5.6525 H   0  0  0  0  0  0  0  0  0  0  0  0
    4.4485    0.5255   -4.4878 H   0  0  0  0  0  0  0  0  0  0  0  0
    4.6836    0.9861   -2.4832 H   0  0  0  0  0  0  0  0  0  0  0  0
    3.1549    1.4741   -3.1746 H   0  0  0  0  0  0  0  0  0  0  0  0
    3.3064    1.2696   -1.4459 H   0  0  0  0  0  0  0  0  0  0  0  0
  1  2  1  0  0  0  0
  1  4  1  0  0  0  0
  2  3  1  0  0  0  0
  2  4  1  0  0  0  0
  2  5  1  0  0  0  0
  2 30  1  0  0  0  0
  2 32  1  0  0  0  0
  2 34  1  0  0  0  0
  2 36  1  0  0  0  0
  2 38  1  0  0  0  0
  2 40  1  0  0  0  0
  3  4  1  0  0  0  0
  4  5  1  0  0  0  0
  4 18  1  0  0  0  0
  4 20  1  0  0  0  0
  4 22  1  0  0  0  0
  4 24  1  0  0  0  0
  4 26  1  0  0  0  0
  4 28  1  0  0  0  0
  5  6  1  0  0  0  0
  5 12  1  0  0  0  0
  6  7  1  0  0  0  0
  6 11  2  0  0  0  0
  7  8  2  0  0  0  0
  7 42  1  0  0  0  0
  8  9  1  0  0  0  0
  8 43  1  0  0  0  0
  9 10  2  0  0  0  0
  9 44  1  0  0  0  0
 10 11  1  0  0  0  0
 10 45  1  0  0  0  0
 11 46  1  0  0  0  0
 12 13  1  0  0  0  0
 12 17  2  0  0  0  0
 13 14  2  0  0  0  0
 13 47  1  0  0  0  0
 14 15  1  0  0  0  0
 14 48  1  0  0  0  0
 15 16  2  0  0  0  0
 15 49  1  0  0  0  0
 16 17  1  0  0  0  0
 16 50  1  0  0  0  0
 17 51  1  0  0  0  0
 18 19  1  0  0  0  0
 18 20  1  0  0  0  0
 18 28  2  0  0  0  0
 19 52  1  0  0  0  0
 19 53  1  0  0  0  0
 19 54  1  0  0  0  0
 20 21  1  0  0  0  0
 20 22  2  0  0  0  0
 21 55  1  0  0  0  0
 21 56  1  0  0  0  0
 21 57  1  0  0  0  0
 22 23  1  0  0  0  0
 22 24  1  0  0  0  0
 23 58  1  0  0  0  0
 23 59  1  0  0  0  0
 23 60  1  0  0  0  0
 24 25  1  0  0  0  0
 24 26  2  0  0  0  0
 25 61  1  0  0  0  0
 25 62  1  0  0  0  0
 25 63  1  0  0  0  0
 26 27  1  0  0  0  0
 26 28  1  0  0  0  0
 27 64  1  0  0  0  0
 27 65  1  0  0  0  0
 27 66  1  0  0  0  0
 28 29  1  0  0  0  0
 29 67  1  0  0  0  0
 29 68  1  0  0  0  0
 29 69  1  0  0  0  0
 30 31  1  0  0  0  0
 30 32  1  0  0  0  0
 30 40  2  0  0  0  0
 31 70  1  0  0  0  0
 31 71  1  0  0  0  0
 31 72  1  0  0  0  0
 32 33  1  0  0  0  0
 32 34  2  0  0  0  0
 33 73  1  0  0  0  0
 33 74  1  0  0  0  0
 33 75  1  0  0  0  0
 34 35  1  0  0  0  0
 34 36  1  0  0  0  0
 35 76  1  0  0  0  0
 35 77  1  0  0  0  0
 35 78  1  0  0  0  0
 36 37  1  0  0  0  0
 36 38  2  0  0  0  0
 37 79  1  0  0  0  0
 37 80  1  0  0  0  0
 37 81  1  0  0  0  0
 38 39  1  0  0  0  0
 38 40  1  0  0  0  0
 39 82  1  0  0  0  0
 39 83  1  0  0  0  0
 39 84  1  0  0  0  0
 40 41  1  0  0  0  0
 41 85  1  0  0  0  0
 41 86  1  0  0  0  0
 41 87  1  0  0  0  0
M  CHG  1   5   1
M  END
$$$$
