
 OpenBabel09252517103D

 87103  0  0  0  0  0  0  0  0999 V2000
    0.8180    1.0620   -0.2230 H   0  0  0  0  0  0  0  0  0  0  0  0
    1.8030   -0.0000    0.2970 Ru  0  0  0  0  0  0  0  0  0  0  0  0
    0.8190   -1.0620   -0.2240 Cl  0  0  0  0  0  2  0  0  0  0  0  0
   -0.2760   -0.0000   -0.0710 Ru  0  0  0  0  0  0  0  0  0  0  0  0
    0.7887    2.0665   -0.7527 P   0  3  0  0  0  0  0  0  0  0  0  0
    0.4560    1.7501   -2.5242 C   0  0  0  0  0  0  0  0  0  0  0  0
    1.1128    2.4908   -3.4930 C   0  0  0  0  0  0  0  0  0  0  0  0
    0.6045    2.3038   -4.8002 C   0  0  0  0  0  0  0  0  0  0  0  0
   -0.1545    1.2885   -5.1705 C   0  0  0  0  0  0  0  0  0  0  0  0
   -0.7200    0.5538   -4.1656 C   0  0  0  0  0  0  0  0  0  0  0  0
   -0.3721    0.7657   -2.8534 C   0  0  0  0  0  0  0  0  0  0  0  0
   -0.7785    2.4765    0.0985 C   0  0  0  0  0  0  0  0  0  0  0  0
   -1.9535    2.5155   -0.6338 C   0  0  0  0  0  0  0  0  0  0  0  0
   -3.0309    3.1338    0.0436 C   0  0  0  0  0  0  0  0  0  0  0  0
   -3.0781    3.3369    1.3476 C   0  0  0  0  0  0  0  0  0  0  0  0
   -1.8965    3.2166    2.0249 C   0  0  0  0  0  0  0  0  0  0  0  0
   -0.7683    2.7437    1.3992 C   0  0  0  0  0  0  0  0  0  0  0  0
   -1.4770   -0.0000    0.8690 C   0  0  0  0  0  0  0  0  0  0  0  0
   -2.0468    0.0000    2.2782 C   0  0  0  0  0  0  0  0  0  0  0  0
   -1.6880    0.0000   -0.6480 C   0  0  0  0  0  0  0  0  0  0  0  0
   -2.6206    0.0000   -1.8483 C   0  0  0  0  0  0  0  0  0  0  0  0
   -3.1717    0.7331    5.5065 C   0  0  0  0  0  0  0  0  0  0  0  0
   -3.5838   -0.7240    5.6385 C   0  0  0  0  0  0  0  0  0  0  0  0
   -2.5299    1.2279    4.2205 C   0  0  0  0  0  0  0  0  0  0  0  0
   -2.1179    2.6850    4.0884 C   0  0  0  0  0  0  0  0  0  0  0  0
   -2.3244    0.3666    3.1877 C   0  0  0  0  0  0  0  0  0  0  0  0
   -2.7364   -1.0905    3.3198 C   0  0  0  0  0  0  0  0  0  0  0  0
   -1.6826    0.8613    1.9017 C   0  0  0  0  0  0  0  0  0  0  0  0
   -1.2705    2.3184    1.7697 C   0  0  0  0  0  0  0  0  0  0  0  0
    1.6536    1.7119   -1.1085 C   0  0  0  0  0  0  0  0  0  0  0  0
    2.9488    1.3904   -0.3808 C   0  0  0  0  0  0  0  0  0  0  0  0
    1.8256    1.4407   -2.5341 C   0  0  0  0  0  0  0  0  0  0  0  0
    2.1810    0.0346   -2.9890 C   0  0  0  0  0  0  0  0  0  0  0  0
    1.6787    2.3890   -3.4280 C   0  0  0  0  0  0  0  0  0  0  0  0
    1.8570    2.1095   -4.9114 C   0  0  0  0  0  0  0  0  0  0  0  0
    1.2931    3.8963   -2.8812 C   0  0  0  0  0  0  0  0  0  0  0  0
    1.1002    5.0628   -3.8364 C   0  0  0  0  0  0  0  0  0  0  0  0
    1.1350    4.0707   -1.3371 C   0  0  0  0  0  0  0  0  0  0  0  0
    0.7829    5.4228   -0.7384 C   0  0  0  0  0  0  0  0  0  0  0  0
    1.3129    3.0258   -0.5725 C   0  0  0  0  0  0  0  0  0  0  0  0
    1.1592    3.1850    0.9313 C   0  0  0  0  0  0  0  0  0  0  0  0
    1.9304    3.1450   -3.2729 H   0  0  0  0  0  0  0  0  0  0  0  0
    0.8523    3.0359   -5.5401 H   0  0  0  0  0  0  0  0  0  0  0  0
   -0.3182    1.0536   -6.2015 H   0  0  0  0  0  0  0  0  0  0  0  0
   -1.4439   -0.1971   -4.4045 H   0  0  0  0  0  0  0  0  0  0  0  0
   -0.7720    0.1317   -2.0898 H   0  0  0  0  0  0  0  0  0  0  0  0
   -2.0387    2.1146   -1.6222 H   0  0  0  0  0  0  0  0  0  0  0  0
   -3.8656    3.4595   -0.5414 H   0  0  0  0  0  0  0  0  0  0  0  0
   -3.9919    3.5823    1.8473 H   0  0  0  0  0  0  0  0  0  0  0  0
   -1.8496    3.4948    3.0570 H   0  0  0  0  0  0  0  0  0  0  0  0
    0.1266    2.5894    1.9652 H   0  0  0  0  0  0  0  0  0  0  0  0
   -2.6481    0.8736    2.4197 H   0  0  0  0  0  0  0  0  0  0  0  0
   -2.6481   -0.8737    2.4197 H   0  0  0  0  0  0  0  0  0  0  0  0
   -1.2453    0.0000    2.9870 H   0  0  0  0  0  0  0  0  0  0  0  0
   -3.2377   -0.8736   -1.8205 H   0  0  0  0  0  0  0  0  0  0  0  0
   -3.2377    0.8737   -1.8205 H   0  0  0  0  0  0  0  0  0  0  0  0
   -2.0428    0.0000   -2.7489 H   0  0  0  0  0  0  0  0  0  0  0  0
   -4.3031   -0.9611    4.8828 H   0  0  0  0  0  0  0  0  0  0  0  0
   -2.7239   -1.3498    5.5214 H   0  0  0  0  0  0  0  0  0  0  0  0
   -4.0144   -0.8867    6.6045 H   0  0  0  0  0  0  0  0  0  0  0  0
   -1.0646    2.7429    3.9092 H   0  0  0  0  0  0  0  0  0  0  0  0
   -2.6439    3.1317    3.2707 H   0  0  0  0  0  0  0  0  0  0  0  0
   -2.3551    3.2061    4.9923 H   0  0  0  0  0  0  0  0  0  0  0  0
   -3.4558   -1.3277    2.5641 H   0  0  0  0  0  0  0  0  0  0  0  0
   -1.8765   -1.7164    3.2026 H   0  0  0  0  0  0  0  0  0  0  0  0
   -3.1670   -1.2533    4.2857 H   0  0  0  0  0  0  0  0  0  0  0  0
   -0.2172    2.3764    1.5905 H   0  0  0  0  0  0  0  0  0  0  0  0
   -1.7965    2.7651    0.9519 H   0  0  0  0  0  0  0  0  0  0  0  0
   -1.5078    2.8395    2.6736 H   0  0  0  0  0  0  0  0  0  0  0  0
    2.7872    1.4442    0.6755 H   0  0  0  0  0  0  0  0  0  0  0  0
    3.2697    0.4039   -0.6428 H   0  0  0  0  0  0  0  0  0  0  0  0
    3.7013    2.0969   -0.6629 H   0  0  0  0  0  0  0  0  0  0  0  0
    1.4167   -0.3332   -3.6412 H   0  0  0  0  0  0  0  0  0  0  0  0
    3.1155    0.0538   -3.5099 H   0  0  0  0  0  0  0  0  0  0  0  0
    2.2612   -0.6066   -2.1362 H   0  0  0  0  0  0  0  0  0  0  0  0
    2.8503    1.7543   -5.0905 H   0  0  0  0  0  0  0  0  0  0  0  0
    1.1515    1.3673   -5.2218 H   0  0  0  0  0  0  0  0  0  0  0  0
    1.6948    3.0100   -5.4660 H   0  0  0  0  0  0  0  0  0  0  0  0
    2.0035    5.2268   -4.3860 H   0  0  0  0  0  0  0  0  0  0  0  0
    0.3047    4.8394   -4.5162 H   0  0  0  0  0  0  0  0  0  0  0  0
    0.8568    5.9434   -3.2795 H   0  0  0  0  0  0  0  0  0  0  0  0
    1.5398    6.1344   -0.9947 H   0  0  0  0  0  0  0  0  0  0  0  0
   -0.1596    5.7496   -1.1252 H   0  0  0  0  0  0  0  0  0  0  0  0
    0.7208    5.3361    0.3263 H   0  0  0  0  0  0  0  0  0  0  0  0
    1.8662    3.9046    1.2879 H   0  0  0  0  0  0  0  0  0  0  0  0
    0.1673    3.5183    1.1551 H   0  0  0  0  0  0  0  0  0  0  0  0
    1.3358    2.2442    1.4095 H   0  0  0  0  0  0  0  0  0  0  0  0
  1  2  1  0  0  0  0
  1  4  1  0  0  0  0
  2  3  1  0  0  0  0
  2  4  1  0  0  0  0
  2  5  1  0  0  0  0
  2 30  1  0  0  0  0
  2 32  1  0  0  0  0
  2 34  1  0  0  0  0
  2 36  1  0  0  0  0
  2 38  1  0  0  0  0
  2 40  1  0  0  0  0
  3  4  1  0  0  0  0
  4  5  1  0  0  0  0
  4 18  1  0  0  0  0
  4 20  1  0  0  0  0
  4 22  1  0  0  0  0
  4 24  1  0  0  0  0
  4 26  1  0  0  0  0
  4 28  1  0  0  0  0
  5  6  1  0  0  0  0
  5 12  1  0  0  0  0
  6  7  1  0  0  0  0
  6 11  2  0  0  0  0
  7  8  2  0  0  0  0
  7 42  1  0  0  0  0
  8  9  1  0  0  0  0
  8 43  1  0  0  0  0
  9 10  2  0  0  0  0
  9 44  1  0  0  0  0
 10 11  1  0  0  0  0
 10 45  1  0  0  0  0
 11 46  1  0  0  0  0
 12 13  1  0  0  0  0
 12 17  2  0  0  0  0
 13 14  2  0  0  0  0
 13 47  1  0  0  0  0
 14 15  1  0  0  0  0
 14 48  1  0  0  0  0
 15 16  2  0  0  0  0
 15 49  1  0  0  0  0
 16 17  1  0  0  0  0
 16 50  1  0  0  0  0
 17 51  1  0  0  0  0
 18 19  1  0  0  0  0
 18 20  1  0  0  0  0
 18 28  2  0  0  0  0
 19 52  1  0  0  0  0
 19 53  1  0  0  0  0
 19 54  1  0  0  0  0
 20 21  1  0  0  0  0
 20 22  2  0  0  0  0
 21 55  1  0  0  0  0
 21 56  1  0  0  0  0
 21 57  1  0  0  0  0
 22 23  1  0  0  0  0
 22 24  1  0  0  0  0
 23 58  1  0  0  0  0
 23 59  1  0  0  0  0
 23 60  1  0  0  0  0
 24 25  1  0  0  0  0
 24 26  2  0  0  0  0
 25 61  1  0  0  0  0
 25 62  1  0  0  0  0
 25 63  1  0  0  0  0
 26 27  1  0  0  0  0
 26 28  1  0  0  0  0
 27 64  1  0  0  0  0
 27 65  1  0  0  0  0
 27 66  1  0  0  0  0
 28 29  1  0  0  0  0
 29 67  1  0  0  0  0
 29 68  1  0  0  0  0
 29 69  1  0  0  0  0
 30 31  1  0  0  0  0
 30 32  1  0  0  0  0
 30 40  2  0  0  0  0
 31 70  1  0  0  0  0
 31 71  1  0  0  0  0
 31 72  1  0  0  0  0
 32 33  1  0  0  0  0
 32 34  2  0  0  0  0
 33 73  1  0  0  0  0
 33 74  1  0  0  0  0
 33 75  1  0  0  0  0
 34 35  1  0  0  0  0
 34 36  1  0  0  0  0
 35 76  1  0  0  0  0
 35 77  1  0  0  0  0
 35 78  1  0  0  0  0
 36 37  1  0  0  0  0
 36 38  2  0  0  0  0
 37 79  1  0  0  0  0
 37 80  1  0  0  0  0
 37 81  1  0  0  0  0
 38 39  1  0  0  0  0
 38 40  1  0  0  0  0
 39 82  1  0  0  0  0
 39 83  1  0  0  0  0
 39 84  1  0  0  0  0
 40 41  1  0  0  0  0
 41 85  1  0  0  0  0
 41 86  1  0  0  0  0
 41 87  1  0  0  0  0
M  CHG  1   5   1
M  END
$$$$
