
  --CCDC--092525    3D                              

 24 29  0  0  0  0  0  0  0  0999 V2000
    1.6569   -1.3403    0.0642 H      0
    1.4182   -0.3865   -0.4012 C      0
    2.1324    0.3529   -0.0460 H      0
    1.5481   -0.4935   -1.4758 H      0
   -0.0196    0.0377   -0.0674 C      0
   -1.1888    0.4381   -0.9241 C      0
   -0.8648    0.4789   -2.0209 H      0
   -2.4609    0.1219   -0.1551 C      0
   -3.3220    0.0096   -0.8984 H      0
   -2.0320   -0.6221    1.1502 C      0
   -2.5268   -1.6391    1.2536 H      0
   -0.4906   -0.6757    1.1534 C      0
   -0.0475   -1.7200    1.2167 H      0
   -1.3222   -1.7104   -0.5261 Mn     0
   -2.9334   -3.3257   -0.3265 C      0
   -3.7353   -4.1296   -0.2272 O      0
   -0.3864   -3.6908    0.1422 C      0
    0.0817   -4.6672    0.4999 O      0
   -1.7279   -2.5794   -2.1901 H      0
   -0.2913   -2.9495   -2.7123 Si     0
   -0.2579   -5.0008   -2.4661 Cl     0
    1.6680   -3.1857   -2.1001 Cl     0
    0.5208   -1.3583   -3.7510 Cl     0
   -0.5910   -3.3693   -4.1270 H      0
  1  2  1
  2  3  1
  2  4  1
  2  5  1
  5  6  4
  6  7  1
  6  8  4
  8  9  1
  8 10  4
 10 11  1
 10 12  4
  5 12  4
 12 13  1
 12 14  1
  8 14  1
 10 14  1
  6 14  1
  5 14  1
 14 15  1
 15 16  3
 14 17  1
 17 18  3
 14 19  1
 19 20  1
 14 20  1
 20 21  1
 20 22  1
 20 23  1
 20 24  1
M  END
$$$$
