
 OpenBabel09252518113D

 36 38  0  0  1  0  0  0  0  0999 V2000
    2.3699    3.0946   -3.7407 H   0  0  0  0  0  0  0  0  0  0  0  0
    2.9061    2.4665   -3.0603 C   0  0  0  0  0  0  0  0  0  0  0  0
    2.7381    2.5526   -2.0071 H   0  0  0  0  0  0  0  0  0  0  0  0
    3.8014    1.5585   -3.5343 C   0  0  0  0  0  0  0  0  0  0  0  0
    3.9693    1.4724   -4.5876 H   0  0  0  0  0  0  0  0  0  0  0  0
    4.5631    0.6663   -2.5678 C   0  0  1  0  0  0  0  0  0  0  0  0
    5.1389    1.2730   -1.9006 H   0  0  0  0  0  0  0  0  0  0  0  0
    3.5785   -0.1717   -1.7686 C   0  0  0  0  0  0  0  0  0  0  0  0
    3.0026   -0.7784   -2.4358 H   0  0  0  0  0  0  0  0  0  0  0  0
    4.1147   -0.7997   -1.0882 H   0  0  0  0  0  0  0  0  0  0  0  0
    2.9250    0.4733   -1.2191 H   0  0  0  0  0  0  0  0  0  0  0  0
    5.4914   -0.2499   -3.3484 C   0  0  1  0  0  0  0  0  0  0  0  0
    4.9155   -0.8567   -4.0156 H   0  0  0  0  0  0  0  0  0  0  0  0
    6.4436    0.5605   -4.1213 N   0  0  0  0  0  0  0  0  0  0  0  0
    6.0181    1.3815   -4.9932 N   0  0  0  0  0  4  0  0  0  0  0  0
    5.5927    2.2025   -5.8650 N   0  0  0  0  0  0  0  0  0  0  0  0
    6.3698   -1.0913   -2.4369 C   0  0  2  0  0  0  0  0  0  0  0  0
    5.2998   -1.0913   -2.4369 H   0  0  0  0  0  0  0  0  0  0  0  0
    5.9043   -2.0097   -1.6068 C   0  0  1  0  0  0  0  0  0  0  0  0
    5.2680   -2.6350   -1.0161 H   0  0  0  0  0  0  0  0  0  0  0  0
    6.7596   -3.2085   -1.8055 C   0  0  1  0  0  0  0  0  0  0  0  0
    7.3918   -3.4138   -2.6440 H   0  0  0  0  0  0  0  0  0  0  0  0
    7.6452   -2.8725   -2.7285 C   0  0  2  0  0  0  0  0  0  0  0  0
    7.1302   -2.2167   -3.3990 H   0  0  0  0  0  0  0  0  0  0  0  0
    7.3974   -2.5762   -4.1986 C   0  0  0  0  0  0  0  0  0  0  0  0
    7.9414   -3.2954   -4.7745 H   0  0  0  0  0  0  0  0  0  0  0  0
    6.3591   -2.6282   -4.4519 H   0  0  0  0  0  0  0  0  0  0  0  0
    7.7677   -1.5951   -4.4112 H   0  0  0  0  0  0  0  0  0  0  0  0
    7.4097   -1.6072   -3.1118 Fe  0  0  0  0  0  0  0  0  0  0  0  0
    7.1955    0.2366   -2.1734 C   0  0  0  0  0  0  0  0  0  0  0  0
    6.9385    1.2978   -1.6334 O   0  0  0  0  0  0  0  0  0  0  0  0
    8.2377   -0.0307   -2.0369 C   0  0  0  0  0  0  0  0  0  0  0  0
    8.6072    0.9282   -1.3830 O   0  0  0  0  0  0  0  0  0  0  0  0
    8.4114   -2.6977   -4.5726 C   0  0  0  0  0  0  0  0  0  0  0  0
    8.8811   -3.3700   -5.4733 O   0  0  0  0  0  0  0  0  0  0  0  0
    5.7668    3.2013   -5.7529 H   0  0  0  0  0  0  0  0  0  0  0  0
  1  2  1  0  0  0  0
  2  3  1  0  0  0  0
  2  4  2  0  0  0  0
  4  5  1  0  0  0  0
  4  6  1  0  0  0  0
  6  7  1  1  0  0  0
  6  8  1  0  0  0  0
  6 12  1  0  0  0  0
  8  9  1  0  0  0  0
  8 10  1  0  0  0  0
  8 11  1  0  0  0  0
 12 13  1  6  0  0  0
 12 14  1  0  0  0  0
 14 15  2  0  0  0  0
 15 16  2  0  0  0  0
 16 36  1  0  0  0  0
 17 19  2  0  0  0  0
 17 29  1  0  0  0  0
 17 18  1  6  0  0  0
 17 12  1  0  0  0  0
 19 21  1  0  0  0  0
 19 29  1  0  0  0  0
 19 20  1  1  0  0  0
 21 23  2  0  0  0  0
 21 29  1  0  0  0  0
 21 22  1  1  0  0  0
 23 29  1  0  0  0  0
 23 24  1  6  0  0  0
 23 25  1  0  0  0  0
 25 26  1  0  0  0  0
 25 27  1  0  0  0  0
 25 28  1  0  0  0  0
 29 30  1  0  0  0  0
 29 32  1  0  0  0  0
 29 34  1  0  0  0  0
 30 31  3  0  0  0  0
 32 33  3  0  0  0  0
 34 35  3  0  0  0  0
M  END
$$$$
