
  --CCDC--092525    3D                              

 39 44  0  0  0  0  0  0  0  0999 V2000
   -0.0574    0.3580   -0.8486 C      0
    1.7625   -0.0016   -0.6237 Si     0
    1.8602   -1.4304    0.5773 C      0
    2.3601   -0.6627   -2.2667 C      0
    2.6973    1.4441   -0.0710 C      0
    3.7413    1.9404   -0.8533 C      0
    5.2896    2.6809   -2.0110 Cr     0
    6.2816    4.2301   -2.9609 C      0
    6.8274    5.0830   -3.4840 O      0
    7.0172    2.4332   -3.1249 C      0
    7.9681    2.2969   -3.7380 O      0
    5.0407    4.1000   -1.0486 C      0
    6.0821    2.8650   -0.4750 C      0
    6.1610    1.3634   -1.2984 C      0
    5.2106    1.1039   -2.7200 C      0
    4.1877    2.3483   -3.3082 C      0
    4.0902    3.8411   -2.4699 C      0
    2.3131    2.2073    1.5239 Si     0
    0.8815    1.3864    2.4028 C      0
    1.8398    4.0089    1.3642 C      0
    3.7519    2.1590    2.7171 C      0
   -0.2050    1.3302   -1.3143 H      0
   -0.5697    0.3541    0.1094 H      0
   -0.5270   -0.3953   -1.4753 H      0
    2.8531   -1.4974    1.0167 H      0
    1.6477   -2.3709    0.0737 H      0
    1.1398   -1.3068    1.3830 H      0
    1.7748   -1.5285   -2.5688 H      0
    3.4037   -0.9637   -2.2049 H      0
    2.2707    0.0943   -3.0431 H      0
    0.0072    1.3406    1.7565 H      0
    0.6178    1.9406    3.3000 H      0
    1.1291    0.3736    2.7069 H      0
    0.9592    4.1245    0.7348 H      0
    2.6500    4.5858    0.9227 H      0
    1.6151    4.4357    2.3402 H      0
    4.0485    1.1323    2.9185 H      0
    3.4829    2.6265    3.6614 H      0
    4.6103    2.6869    2.3080 H      0
  1  2  1
  2  3  1
  2  4  1
  2  5  1
  5  6  4
  6  7  4
  7  8  1
  8  9  3
  7 10  1
 10 11  3
  7 12  1
 12 13  4
  7 13  1
 13 14  4
  7 14  1
 14 15  4
  7 15  1
 15 16  4
  7 16  1
 16 17  4
  7 17  1
 12 17  4
  5 18  1
 18 19  1
 18 20  1
 18 21  1
  1 22  1
  1 23  1
  1 24  1
  3 25  1
  3 26  1
  3 27  1
  4 28  1
  4 29  1
  4 30  1
 19 31  1
 19 32  1
 19 33  1
 20 34  1
 20 35  1
 20 36  1
 21 37  1
 21 38  1
 21 39  1
M  END
$$$$
