
     RDKit          3D

 35 38  0  0  0  0  0  0  0  0999 V2000
    6.0285   -1.0512    0.9032 F   0  0  0  0  0  0  0  0  0  0  0  0
    4.8185   -1.4206    0.3946 C   0  0  0  0  0  0  0  0  0  0  0  0
    5.0764   -1.9449   -0.8343 F   0  0  0  0  0  0  0  0  0  0  0  0
    4.3975   -2.4595    1.1688 F   0  0  0  0  0  0  0  0  0  0  0  0
    3.8274   -0.2838    0.3427 C   0  0  0  0  0  0  0  0  0  0  0  0
    4.2622    1.0448    0.3127 C   0  0  0  0  0  0  0  0  0  0  0  0
    3.3337    2.0781    0.2574 C   0  0  0  0  0  0  0  0  0  0  0  0
    1.9642    1.7933    0.2208 C   0  0  0  0  0  0  0  0  0  0  0  0
    1.4872    0.4711    0.2281 C   0  0  0  0  0  0  0  0  0  0  0  0
    2.4450   -0.5536    0.2962 C   0  0  0  0  0  0  0  0  0  0  0  0
    0.0683    0.1845    0.2000 N   0  0  0  0  0  0  0  0  0  0  0  0
   -0.8487    1.2778    0.5620 C   0  0  0  0  0  0  0  0  0  0  0  0
   -2.3040    0.9037    0.9290 C   0  0  0  0  0  0  0  0  0  0  0  0
   -2.7522    1.8033    2.4065 Cl  0  0  0  0  0  0  0  0  0  0  0  0
   -3.1806    1.3354   -0.1443 O   0  0  0  0  0  0  0  0  0  0  0  0
   -3.7932    0.1335   -0.6505 C   0  0  0  0  0  0  0  0  0  0  0  0
   -5.2766    0.4921   -1.7955 Br  0  0  0  0  0  0  0  0  0  0  0  0
   -2.6819   -0.6349   -1.3884 C   0  0  0  0  0  0  0  0  0  0  0  0
   -1.9049   -1.2404   -0.2016 C   0  0  0  0  0  0  0  0  0  0  0  0
   -2.5923   -0.6047    1.0223 C   0  0  0  0  0  0  0  0  0  0  0  0
   -4.0503   -0.7503    0.5621 C   0  0  0  0  0  0  0  0  0  0  0  0
   -5.5625   -0.2419    1.9126 I   0  0  0  0  0  0  0  0  0  0  0  0
   -0.4155   -1.0251   -0.2876 C   0  0  0  0  0  0  0  0  0  0  0  0
    0.2560   -1.9022   -0.8295 O   0  0  0  0  0  0  0  0  0  0  0  0
    5.3256    1.2785    0.3357 H   0  0  0  0  0  0  0  0  0  0  0  0
    3.6727    3.1116    0.2349 H   0  0  0  0  0  0  0  0  0  0  0  0
    1.2924    2.6442    0.1533 H   0  0  0  0  0  0  0  0  0  0  0  0
    2.1429   -1.5982    0.3462 H   0  0  0  0  0  0  0  0  0  0  0  0
   -0.3875    1.7830    1.4197 H   0  0  0  0  0  0  0  0  0  0  0  0
   -0.8581    1.9794   -0.2822 H   0  0  0  0  0  0  0  0  0  0  0  0
   -3.0756   -1.4396   -2.0206 H   0  0  0  0  0  0  0  0  0  0  0  0
   -2.0612    0.0218   -2.0086 H   0  0  0  0  0  0  0  0  0  0  0  0
   -2.0675   -2.3274   -0.1712 H   0  0  0  0  0  0  0  0  0  0  0  0
   -2.3159   -1.0762    1.9687 H   0  0  0  0  0  0  0  0  0  0  0  0
   -4.2700   -1.7816    0.2504 H   0  0  0  0  0  0  0  0  0  0  0  0
  1  2  1  0
  2  3  1  0
  2  4  1  0
  2  5  1  0
  5  6  2  0
  6  7  1  0
  7  8  2  0
  8  9  1  0
  9 10  2  0
  9 11  1  0
 11 12  1  0
 12 13  1  0
 13 14  1  0
 13 15  1  0
 15 16  1  0
 16 17  1  0
 16 18  1  0
 18 19  1  0
 19 20  1  0
 20 21  1  0
 21 22  1  0
 19 23  1  0
 23 24  2  0
 10  5  1  0
 23 11  1  0
 20 13  1  0
 21 16  1  0
  6 25  1  0
  7 26  1  0
  8 27  1  0
 10 28  1  0
 12 29  1  0
 12 30  1  0
 18 31  1  0
 18 32  1  0
 19 33  1  0
 20 34  1  0
 21 35  1  0
M  END
