
     RDKit          3D

 35 38  0  0  0  0  0  0  0  0999 V2000
    3.5631    1.6143    0.3092 C   0  0  0  0  0  0  0  0  0  0  0  0
    2.1707    1.5123    0.2169 C   0  0  0  0  0  0  0  0  0  0  0  0
    1.5318    0.2681    0.0764 C   0  0  0  0  0  0  0  0  0  0  0  0
    0.0898    0.1698   -0.0086 N   0  0  0  0  0  0  0  0  0  0  0  0
   -0.5258   -0.9120   -0.6295 C   0  0  0  0  0  0  0  0  0  0  0  0
    0.0475   -1.8082   -1.2476 O   0  0  0  0  0  0  0  0  0  0  0  0
   -2.0325   -0.9425   -0.5949 C   0  0  2  0  0  0  0  0  0  0  0  0
   -2.6889   -0.1251   -1.7261 C   0  0  0  0  0  0  0  0  0  0  0  0
   -3.7183    0.7001   -0.9330 C   0  0  2  0  0  0  0  0  0  0  0  0
   -5.1075    1.3602   -2.0619 Br  0  0  0  0  0  0  0  0  0  0  0  0
   -2.9765    1.7560   -0.2918 O   0  0  0  0  0  0  0  0  0  0  0  0
   -2.1959    1.1088    0.7467 C   0  0  2  0  0  0  0  0  0  0  0  0
   -2.5752    1.9034    2.3016 Cl  0  0  0  0  0  0  0  0  0  0  0  0
   -0.6942    1.3290    0.4486 C   0  0  0  0  0  0  0  0  0  0  0  0
   -2.6738   -0.3519    0.6757 C   0  0  1  0  0  0  0  0  0  0  0  0
   -4.1230   -0.2621    0.1751 C   0  0  1  0  0  0  0  0  0  0  0  0
   -5.6023    0.2957    1.5426 I   0  0  0  0  0  0  0  0  0  0  0  0
    2.3509   -0.8723    0.0547 C   0  0  0  0  0  0  0  0  0  0  0  0
    3.7540   -0.7877    0.1555 C   0  0  0  0  0  0  0  0  0  0  0  0
    4.5926   -2.0414    0.1067 C   0  0  0  0  0  0  0  0  0  0  0  0
    5.8224   -1.8835    0.6740 F   0  0  0  0  0  0  0  0  0  0  0  0
    4.8221   -2.4668   -1.1653 F   0  0  0  0  0  0  0  0  0  0  0  0
    4.0201   -3.0911    0.7596 F   0  0  0  0  0  0  0  0  0  0  0  0
    4.3526    0.4704    0.2734 C   0  0  0  0  0  0  0  0  0  0  0  0
    4.0295    2.5928    0.4017 H   0  0  0  0  0  0  0  0  0  0  0  0
    1.6133    2.4446    0.2264 H   0  0  0  0  0  0  0  0  0  0  0  0
   -2.3310   -1.9972   -0.6818 H   0  0  0  0  0  0  0  0  0  0  0  0
   -1.9712    0.5065   -2.2621 H   0  0  0  0  0  0  0  0  0  0  0  0
   -3.1598   -0.8043   -2.4467 H   0  0  0  0  0  0  0  0  0  0  0  0
   -0.2011    1.6811    1.3632 H   0  0  0  0  0  0  0  0  0  0  0  0
   -0.5884    2.1082   -0.3172 H   0  0  0  0  0  0  0  0  0  0  0  0
   -2.4893   -0.9486    1.5724 H   0  0  0  0  0  0  0  0  0  0  0  0
   -4.4601   -1.2197   -0.2472 H   0  0  0  0  0  0  0  0  0  0  0  0
    1.9189   -1.8693   -0.0109 H   0  0  0  0  0  0  0  0  0  0  0  0
    5.4356    0.5626    0.3410 H   0  0  0  0  0  0  0  0  0  0  0  0
  1  2  2  0
  2  3  1  0
  3  4  1  0
  4  5  1  0
  5  6  2  0
  5  7  1  0
  7  8  1  0
  8  9  1  0
  9 10  1  6
  9 11  1  0
 11 12  1  0
 12 13  1  1
 12 14  1  0
 12 15  1  0
 15 16  1  0
 16 17  1  0
  3 18  2  0
 18 19  1  0
 19 20  1  0
 20 21  1  0
 20 22  1  0
 20 23  1  0
 19 24  2  0
 24  1  1  0
 14  4  1  0
 15  7  1  0
 16  9  1  0
  1 25  1  0
  2 26  1  0
  7 27  1  6
  8 28  1  0
  8 29  1  0
 14 30  1  0
 14 31  1  0
 15 32  1  1
 16 33  1  6
 18 34  1  0
 24 35  1  0
M  END
