
  --CCDC--092525    3D                              

 26 29  0  0  0  0  0  0  0  0999 V2000
    1.3664   -2.0656    2.2979 H      0
    0.5226   -1.7437    1.6963 C      0
    0.9149   -1.1325    0.4757 C      0
    2.3464   -1.0020    0.1556 C      0
    2.7150   -0.4802   -0.8908 O      0
    3.3441   -1.5105    1.1535 C      0
    3.1174   -1.1084    2.1405 H      0
    4.3580   -1.2117    0.8994 H      0
    3.3080   -2.5940    1.2204 H      0
   -0.1351   -0.4876   -0.4085 C      0
   -0.3607   -0.5022   -1.4860 H      0
   -0.9119   -0.2324    0.8499 C      0
   -0.8879   -0.7245    1.9465 H      0
   -2.3534   -0.7153    0.9944 C      0
   -2.9118   -0.8549    0.0406 H      0
   -2.1244   -1.9173    1.8970 C      0
   -2.5886   -2.8774    1.5829 H      0
   -0.7188   -2.0371    2.3563 N      0
   -0.5943   -2.4713    3.2691 H      0
   -1.2235   -2.2054    0.0577 Fe     0
   -0.6469   -4.2471    0.6593 C      0
   -0.3352   -5.2961    0.9855 O      0
   -2.6409   -3.2029   -1.2973 C      0
   -3.3747   -3.7193   -1.9987 O      0
    0.0204   -3.1809   -1.4729 C      0
    0.6581   -3.6978   -2.2636 O      0
  1  2  1
  2  3  2
  3  4  1
  4  5  2
  4  6  1
  6  7  1
  6  8  1
  6  9  1
  3 10  1
 10 11  1
 10 12  2
 12 13  1
 12 14  1
 14 15  1
 14 16  2
 16 17  1
 16 18  1
  2 18  1
 18 19  1
 16 20  1
 14 20  1
 12 20  1
 10 20  1
 20 21  1
 21 22  3
 20 23  1
 23 24  3
 20 25  1
 25 26  3
M  END
$$$$
