
 OpenBabel09252515393D

 32 35  0  0  0  0  0  0  0  0999 V2000
    1.8265    1.0813   -0.8690 H   0  0  0  0  0  0  0  0  0  0  0  0
    2.3626    0.3077   -0.3300 C   0  0  0  0  0  3  0  0  0  0  0  0
    1.7620   -1.0077   -0.2132 C   0  0  0  0  0  3  0  0  0  0  0  0
    0.7869   -1.1960   -0.6468 H   0  0  0  0  0  0  0  0  0  0  0  0
    2.5728   -2.1205    0.2408 C   0  0  0  0  0  3  0  0  0  0  0  0
    2.1150   -3.0927    0.3702 H   0  0  0  0  0  0  0  0  0  0  0  0
    3.9990   -1.9350    0.4407 C   0  0  0  0  0  3  0  0  0  0  0  0
    4.6312   -0.5974    0.4723 C   0  0  0  0  0  3  0  0  0  0  0  0
    3.7879    0.4898   -0.0716 C   0  0  0  0  0  3  0  0  0  0  0  0
    4.2592    1.3065   -0.6002 H   0  0  0  0  0  0  0  0  0  0  0  0
    6.0750   -0.4922    0.8203 C   0  0  0  0  0  0  0  0  0  0  0  0
    6.8018   -1.6431    0.7843 C   0  0  0  0  0  0  0  0  0  0  0  0
    6.1740   -2.9712    0.4904 C   0  0  0  0  0  0  0  0  0  0  0  0
    6.8419   -3.9939    0.3578 O   0  0  0  0  0  0  0  0  0  0  0  0
    4.8135   -3.0230    0.4323 N   0  0  0  0  0  0  0  0  0  0  0  0
    4.4255   -3.9452    0.2872 H   0  0  0  0  0  0  0  0  0  0  0  0
    8.2771   -1.7120    1.0960 C   0  0  0  0  0  0  0  0  0  0  0  0
    8.8359   -1.5065    0.1735 H   0  0  0  0  0  0  0  0  0  0  0  0
    8.5754   -2.7144    1.4241 H   0  0  0  0  0  0  0  0  0  0  0  0
    8.6913   -0.7397    2.1914 C   0  0  0  0  0  0  0  0  0  0  0  0
    9.7867   -0.7026    2.2338 H   0  0  0  0  0  0  0  0  0  0  0  0
    8.3471   -1.1117    3.1650 H   0  0  0  0  0  0  0  0  0  0  0  0
    8.1213    0.6211    1.9679 C   0  0  0  0  0  3  0  0  0  0  0  0
    8.8008    1.7681    2.5590 C   0  0  0  0  0  3  0  0  0  0  0  0
    9.7598    1.6450    3.0479 H   0  0  0  0  0  0  0  0  0  0  0  0
    8.1583    3.0643    2.5796 C   0  0  0  0  0  3  0  0  0  0  0  0
    8.6172    3.8931    3.1034 H   0  0  0  0  0  0  0  0  0  0  0  0
    6.8585    3.2177    1.9666 C   0  0  0  0  0  3  0  0  0  0  0  0
    6.3247    4.1559    2.0530 H   0  0  0  0  0  0  0  0  0  0  0  0
    6.2701    2.1182    1.2165 C   0  0  0  0  0  3  0  0  0  0  0  0
    5.5910    2.4042    0.4306 H   0  0  0  0  0  0  0  0  0  0  0  0
    6.7839    0.7349    1.3131 C   0  0  0  0  0  3  0  0  0  0  0  0
  1  2  1  0  0  0  0
  2  3  1  0  0  0  0
  2  9  1  0  0  0  0
  3  4  1  0  0  0  0
  3  5  1  0  0  0  0
  5  6  1  0  0  0  0
  5  7  1  0  0  0  0
  7  8  1  0  0  0  0
  7 15  1  0  0  0  0
  8  9  1  0  0  0  0
  8 11  1  0  0  0  0
  9 10  1  0  0  0  0
 11 12  2  0  0  0  0
 11 32  1  0  0  0  0
 12 13  1  0  0  0  0
 12 17  1  0  0  0  0
 13 14  2  0  0  0  0
 13 15  1  0  0  0  0
 15 16  1  0  0  0  0
 17 18  1  0  0  0  0
 17 19  1  0  0  0  0
 17 20  1  0  0  0  0
 20 21  1  0  0  0  0
 20 22  1  0  0  0  0
 20 23  1  0  0  0  0
 23 24  1  0  0  0  0
 23 32  1  0  0  0  0
 24 25  1  0  0  0  0
 24 26  1  0  0  0  0
 26 27  1  0  0  0  0
 26 28  1  0  0  0  0
 28 29  1  0  0  0  0
 28 30  1  0  0  0  0
 30 31  1  0  0  0  0
 30 32  1  0  0  0  0
M  END
$$$$
