
  --CCDC--092525    3D                              

 24 29  0  0  0  0  0  0  0  0999 V2000
    1.6764   -1.2855    0.0721 H      0
    1.4056   -0.3628   -0.4371 C      0
    2.1109    0.4094   -0.1373 H      0
    1.5128   -0.5233   -1.5078 H      0
   -0.0329    0.0472   -0.0898 C      0
   -1.2190    0.4366   -0.9304 C      0
   -0.9189    0.4778   -2.0344 H      0
   -2.4730    0.1126   -0.1365 C      0
   -3.3461   -0.0077   -0.8646 H      0
   -2.0167   -0.6311    1.1640 C      0
   -2.5003   -1.6523    1.2786 H      0
   -0.4761   -0.6695    1.1384 C      0
   -0.0246   -1.7106    1.1931 H      0
   -1.3290   -1.7113   -0.5261 Mn     0
   -1.0079   -3.7764    0.4110 C      0
   -0.8542   -4.7985    0.8924 O      0
   -3.1455   -3.0652   -0.8601 C      0
   -4.0495   -3.7390   -1.0263 O      0
   -1.2804   -2.5263   -2.2642 H      0
    0.0925   -3.2947   -2.2122 Si     0
   -0.5280   -5.2613   -2.0794 Cl     0
    0.3124   -3.8308   -4.1958 Cl     0
    1.5293   -4.0346   -0.9245 Cl     0
    1.2218   -2.3771   -2.6006 H      0
  1  2  1
  2  3  1
  2  4  1
  2  5  1
  5  6  4
  6  7  1
  6  8  4
  8  9  1
  8 10  4
 10 11  1
 10 12  4
  5 12  4
 12 13  1
 12 14  1
  8 14  1
 10 14  1
  6 14  1
  5 14  1
 14 15  1
 15 16  3
 14 17  1
 17 18  3
 14 19  1
 19 20  1
 14 20  1
 20 21  1
 20 22  1
 20 23  1
 20 24  1
M  END
$$$$
