
  --CCDC--092525    3D                              

 19 24  0  0  0  0  0  0  0  0999 V2000
   -0.0795    0.1092    0.0087 H      0
   -1.6245    0.4161    0.0011 Si     0
   -3.4508    1.1449    0.6375 Cl     0
   -3.2242    0.1144   -1.2707 Cl     0
   -3.0681   -0.9274    0.6147 Cl     0
    0.6520    1.8843   -0.0003 Mn     0
   -0.6780    2.3355   -1.8098 C      0
   -1.3366    2.5464   -2.7165 O      0
    1.3610    0.6732   -1.8088 C      0
    1.7139    0.0705   -2.7087 O      0
    1.6065    2.1497    1.9365 C      0
    0.5912    3.1231    1.7866 C      0
    0.9751    3.9329    0.6634 C      0
    2.1544    3.4193   -0.1727 C      0
    2.8392    3.9420   -1.4152 C      0
    2.5668    2.4020    0.8976 C      0
    2.4838    3.4154   -2.2989 H      0
    3.9167    3.8057   -1.3476 H      0
    2.6376    5.0031   -1.5464 H      0
  1  2  1
  2  3  1
  2  4  1
  2  5  1
  2  6  1
  1  6  1
  6  7  1
  7  8  3
  6  9  1
  9 10  3
  6 11  1
 11 12  4
  6 12  1
 12 13  4
  6 13  1
 13 14  4
  6 14  1
 14 15  1
 14 16  4
  6 16  1
 11 16  4
 15 17  1
 15 18  1
 15 19  1
M  END
$$$$
