
     RDKit          3D

 23 24  0  0  0  0  0  0  0  0999 V2000
    4.5561   -0.2216    1.3720 O   0  0  0  0  0  0  0  0  0  0  0  0
    3.5997   -0.2811    0.6410 C   0  0  0  0  0  0  0  0  0  0  0  0
    3.1281    0.3878   -0.6532 C   0  0  0  0  0  0  0  0  0  0  0  0
    1.7534   -0.1905   -0.2942 C   0  0  0  0  0  0  0  0  0  0  0  0
    2.4353   -0.9794    0.7720 N   0  0  0  0  0  0  0  0  0  0  0  0
    0.5911    0.9202    0.5402 S   0  0  0  0  0  0  0  0  0  0  0  0
    0.7115    0.7537    1.9809 O   0  0  0  0  0  0  0  0  0  0  0  0
    0.7087    2.2466   -0.0407 O   0  0  0  0  0  0  0  0  0  0  0  0
   -1.0399    0.3302    0.1164 C   0  0  0  0  0  0  0  0  0  0  0  0
   -1.5984   -0.7194    0.8516 C   0  0  0  0  0  0  0  0  0  0  0  0
   -2.8700   -1.1851    0.5186 C   0  0  0  0  0  0  0  0  0  0  0  0
   -3.5757   -0.5993   -0.5340 C   0  0  0  0  0  0  0  0  0  0  0  0
   -3.0172    0.4587   -1.2539 C   0  0  0  0  0  0  0  0  0  0  0  0
   -1.7461    0.9315   -0.9287 C   0  0  0  0  0  0  0  0  0  0  0  0
    3.2208    1.4757   -0.6536 H   0  0  0  0  0  0  0  0  0  0  0  0
    3.5915   -0.0284   -1.5520 H   0  0  0  0  0  0  0  0  0  0  0  0
    1.2862   -0.8197   -1.0567 H   0  0  0  0  0  0  0  0  0  0  0  0
    2.1215   -1.0373    1.7399 H   0  0  0  0  0  0  0  0  0  0  0  0
   -1.0632   -1.1699    1.6843 H   0  0  0  0  0  0  0  0  0  0  0  0
   -3.3179   -1.9986    1.0850 H   0  0  0  0  0  0  0  0  0  0  0  0
   -4.5702   -0.9607   -0.7866 H   0  0  0  0  0  0  0  0  0  0  0  0
   -3.5791    0.9201   -2.0629 H   0  0  0  0  0  0  0  0  0  0  0  0
   -1.3264    1.7664   -1.4855 H   0  0  0  0  0  0  0  0  0  0  0  0
  1  2  2  0
  2  3  1  0
  3  4  1  0
  4  5  1  0
  4  6  1  0
  6  7  2  0
  6  8  2  0
  6  9  1  0
  9 10  2  0
 10 11  1  0
 11 12  2  0
 12 13  1  0
 13 14  2  0
  5  2  1  0
 14  9  1  0
  3 15  1  0
  3 16  1  0
  4 17  1  0
  5 18  1  0
 10 19  1  0
 11 20  1  0
 12 21  1  0
 13 22  1  0
 14 23  1  0
M  END
