
  --CCDC--092525    3D                              

 64 65  0  0  0  0  0  0  0  0999 V2000
    0.3976    1.2019   -1.1564 H      0
    0.8780    1.3791   -0.1953 C      0
    1.1827    0.4282    0.2391 H      0
   -0.1450    1.9962    0.7224 C      0
   -1.2944    2.4415    0.2643 N      0
   -1.9660    3.0300    1.2759 N      0
   -3.1438    3.7168    1.1010 O      0
   -3.3283    3.2178   -0.2557 C      0
   -4.1251    3.7030   -0.8207 H      0
   -3.5557    2.1746   -0.3790 H      0
   -2.4708    3.3485   -0.9155 H      0
   -2.4950    4.7666    0.3443 C      0
   -2.9124    5.0092   -0.6316 H      0
   -1.4382    4.5948    0.1588 H      0
   -2.5642    5.7442    0.7599 H      0
   -4.4565    4.2753    1.0160 C      0
   -4.4537    5.1870    0.4245 H      0
   -4.9375    4.5281    1.9415 H      0
   -5.1704    3.6380    0.5039 H      0
   -3.8494    2.3392    1.7797 P      0
   -5.5774    2.4036    2.3651 C      0
   -5.8078    1.4749    2.8829 H      0
   -6.2914    2.4804    1.5485 H      0
   -5.7827    3.2040    3.0626 H      0
   -3.6205    1.8208    3.5067 C      0
   -3.6747    0.7360    3.5674 H      0
   -4.4207    2.1965    4.1384 H      0
   -2.6763    2.1208    3.9483 H      0
   -2.9817    0.7760    1.4080 C      0
   -2.8111    0.6028    0.3488 H      0
   -3.5878   -0.0555    1.7616 H      0
   -2.0286    0.6941    1.9204 H      0
   -2.8454    4.7257    2.4316 P      0
   -3.8018    4.6908    3.9843 C      0
   -3.4243    3.9496    4.6807 H      0
   -3.6719    5.6382    4.5015 H      0
   -4.8701    4.5580    3.8716 H      0
   -3.7222    6.3410    2.5058 C      0
   -3.8777    6.8225    1.5433 H      0
   -3.1549    7.0450    3.1115 H      0
   -4.7069    6.2518    2.9567 H      0
   -1.2081    5.5496    2.3897 C      0
   -0.4675    5.0373    1.7806 H      0
   -0.8113    5.6290    3.3997 H      0
   -1.2833    6.5657    2.0072 H      0
   -1.2088    2.9416    2.3772 N      0
   -0.0880    2.3179    2.0845 C      0
    1.0011    2.1362    3.0919 C      0
    1.4678    1.1663    2.9258 H      0
    0.5597    2.1609    4.0871 H      0
    2.0759    3.2094    3.0131 C      0
    2.9520    2.8366    3.5416 H      0
    1.6947    4.0941    3.5210 H      0
    2.5223    3.6331    1.6323 C      0
    3.3229    4.3619    1.7498 H      0
    1.6737    4.1027    1.1371 H      0
    3.0396    2.5077    0.7160 C      0
    3.1501    1.6041    1.3137 H      0
    4.0113    2.8051    0.3246 H      0
    2.1351    2.1965   -0.4495 C      0
    1.8192    3.1482   -0.8741 H      0
    2.7299    1.6520   -1.1813 H      0
   -4.7383    1.7751    0.8552 H      0
   -2.2932    3.9664    3.4658 H      0
  1  2  1
  2  3  1
  2  4  1
  4  5  2
  5  6  1
  6  7  1
  7  8  1
  8  9  1
  8 10  1
  8 11  1
  7 12  1
 12 13  1
 12 14  1
 12 15  1
  7 16  1
 16 17  1
 16 18  1
 16 19  1
  7 20  1
 20 21  1
 21 22  1
 21 23  1
 21 24  1
 20 25  1
 25 26  1
 25 27  1
 25 28  1
 20 29  1
 29 30  1
 29 31  1
 29 32  1
  7 33  1
 33 34  1
 34 35  1
 34 36  1
 34 37  1
 33 38  1
 38 39  1
 38 40  1
 38 41  1
 33 42  1
 42 43  1
 42 44  1
 42 45  1
  6 46  1
 46 47  2
  4 47  1
 47 48  1
 48 49  1
 48 50  1
 48 51  1
 51 52  1
 51 53  1
 51 54  1
 54 55  1
 54 56  1
 54 57  1
 57 58  1
 57 59  1
 57 60  1
  2 60  1
 60 61  1
 60 62  1
 20 63  1
 33 64  1
M  END
$$$$
