
 OpenBabel09252514383D

 42 41  0  0  0  0  0  0  0  0999 V2000
    1.0939   -0.0221   -0.0262 C   0  0  0  0  0  0  0  0  0  0  0  0
    0.3873    0.2726   -2.0031 Pt  0  0  0  0  0  0  0  0  0  0  0  0
    2.1182   -0.6856   -2.7647 C   0  0  0  0  0  0  0  0  0  0  0  0
   -0.6121   -1.5954   -1.9243 C   0  0  0  0  0  0  0  0  0  0  0  0
   -0.3027    0.5604   -3.9334 N   0  0  0  0  0  0  0  0  0  0  0  0
    0.3841    0.1512   -4.9214 N   0  3  0  0  0  0  0  0  0  0  0  0
    1.0710   -0.2579   -5.9093 N   0  5  0  0  0  0  0  0  0  0  0  0
   -1.5968    1.3709   -1.1302 P   0  0  0  0  0  4  0  0  0  0  0  0
   -1.1901    2.1991    0.4503 C   0  0  0  0  0  0  0  0  0  0  0  0
   -2.1863    2.6145   -2.3364 C   0  0  0  0  0  0  0  0  0  0  0  0
   -2.9082    0.1264   -0.8469 C   0  0  0  0  0  0  0  0  0  0  0  0
    1.5328    2.4138   -2.0934 P   0  0  0  0  0  4  0  0  0  0  0  0
    0.8879    3.5067   -0.7749 C   0  0  0  0  0  0  0  0  0  0  0  0
    3.3279    2.1560   -1.8484 C   0  0  0  0  0  0  0  0  0  0  0  0
    1.2452    3.1911   -3.7250 C   0  0  0  0  0  0  0  0  0  0  0  0
    0.7373   -0.9605    0.3439 H   0  0  0  0  0  0  0  0  0  0  0  0
    0.7373    0.7677    0.6015 H   0  0  0  0  0  0  0  0  0  0  0  0
    2.1639   -0.0221   -0.0262 H   0  0  0  0  0  0  0  0  0  0  0  0
    2.4629   -1.4127   -2.0594 H   0  0  0  0  0  0  0  0  0  0  0  0
    1.8805   -1.1698   -3.6888 H   0  0  0  0  0  0  0  0  0  0  0  0
    2.8850    0.0421   -2.9303 H   0  0  0  0  0  0  0  0  0  0  0  0
   -1.6617   -1.4447   -2.0676 H   0  0  0  0  0  0  0  0  0  0  0  0
   -0.2350   -2.2344   -2.6953 H   0  0  0  0  0  0  0  0  0  0  0  0
   -0.4440   -2.0499   -0.9704 H   0  0  0  0  0  0  0  0  0  0  0  0
   -0.4234    2.9267    0.2846 H   0  0  0  0  0  0  0  0  0  0  0  0
   -2.0638    2.6827    0.8346 H   0  0  0  0  0  0  0  0  0  0  0  0
   -0.8455    1.4720    1.1555 H   0  0  0  0  0  0  0  0  0  0  0  0
   -2.4241    2.1302   -3.2605 H   0  0  0  0  0  0  0  0  0  0  0  0
   -3.0599    3.0981   -1.9520 H   0  0  0  0  0  0  0  0  0  0  0  0
   -1.4195    3.3421   -2.5020 H   0  0  0  0  0  0  0  0  0  0  0  0
   -3.1460   -0.3578   -1.7710 H   0  0  0  0  0  0  0  0  0  0  0  0
   -2.5635   -0.6007   -0.1416 H   0  0  0  0  0  0  0  0  0  0  0  0
   -3.7819    0.6100   -0.4625 H   0  0  0  0  0  0  0  0  0  0  0  0
    1.0560    3.0522    0.1791 H   0  0  0  0  0  0  0  0  0  0  0  0
    1.3923    4.4495   -0.8146 H   0  0  0  0  0  0  0  0  0  0  0  0
   -0.1617    3.6574   -0.9181 H   0  0  0  0  0  0  0  0  0  0  0  0
    3.7050    1.5170   -2.6194 H   0  0  0  0  0  0  0  0  0  0  0  0
    3.8323    3.0988   -1.8882 H   0  0  0  0  0  0  0  0  0  0  0  0
    3.4960    1.7015   -0.8945 H   0  0  0  0  0  0  0  0  0  0  0  0
    1.6223    2.5521   -4.4959 H   0  0  0  0  0  0  0  0  0  0  0  0
    0.1956    3.3418   -3.8682 H   0  0  0  0  0  0  0  0  0  0  0  0
    1.7496    4.1339   -3.7647 H   0  0  0  0  0  0  0  0  0  0  0  0
  1  2  1  0  0  0  0
  1 16  1  0  0  0  0
  1 17  1  0  0  0  0
  1 18  1  0  0  0  0
  2  3  1  0  0  0  0
  2  4  1  0  0  0  0
  2  5  1  0  0  0  0
  2  8  1  0  0  0  0
  2 12  1  0  0  0  0
  3 19  1  0  0  0  0
  3 20  1  0  0  0  0
  3 21  1  0  0  0  0
  4 22  1  0  0  0  0
  4 23  1  0  0  0  0
  4 24  1  0  0  0  0
  5  6  2  0  0  0  0
  6  7  2  0  0  0  0
  8  9  1  0  0  0  0
  8 10  1  0  0  0  0
  8 11  1  0  0  0  0
  9 25  1  0  0  0  0
  9 26  1  0  0  0  0
  9 27  1  0  0  0  0
 10 28  1  0  0  0  0
 10 29  1  0  0  0  0
 10 30  1  0  0  0  0
 11 31  1  0  0  0  0
 11 32  1  0  0  0  0
 11 33  1  0  0  0  0
 12 13  1  0  0  0  0
 12 14  1  0  0  0  0
 12 15  1  0  0  0  0
 13 34  1  0  0  0  0
 13 35  1  0  0  0  0
 13 36  1  0  0  0  0
 14 37  1  0  0  0  0
 14 38  1  0  0  0  0
 14 39  1  0  0  0  0
 15 40  1  0  0  0  0
 15 41  1  0  0  0  0
 15 42  1  0  0  0  0
M  CHG  2   6   1   7  -1
M  END
$$$$
