
     RDKit          3D

  0  0  0  0  0  0  0  0  0  0999 V3000
M  V30 BEGIN CTAB
M  V30 COUNTS 53 60 0 0 0
M  V30 BEGIN ATOM
M  V30 1 C 0.637002 4.261148 -2.332091 0
M  V30 2 C 0.447711 3.074755 -1.620469 0
M  V30 3 N 0.265736 2.057048 -0.997944 0
M  V30 4 Fe -0.081039 0.301691 0.059541 0 CHG=3 VAL=6
M  V30 5 N -1.183619 1.605677 1.242511 0
M  V30 6 C -1.805027 2.363981 1.939701 0
M  V30 7 C -2.505002 3.247433 2.760755 0
M  V30 8 C -0.731461 -0.894310 -1.629783 0 RAD=2 VAL=3
M  V30 9 N -1.990325 -0.550673 -2.146356 0
M  V30 10 C -2.977424 -0.422878 -1.080288 0
M  V30 11 N -2.587001 -1.539266 -0.223119 0
M  V30 12 C -3.057566 -2.809515 0.187409 0
M  V30 13 C -2.204349 -3.100164 1.153567 0
M  V30 14 N -1.201490 -2.098724 1.406953 0
M  V30 15 C -0.450818 -2.368241 2.652894 0
M  V30 16 N 0.399567 -1.201789 2.718061 0
M  V30 17 C 0.781253 -0.358826 3.835425 0
M  V30 18 C 1.854038 0.367130 3.467907 0
M  V30 19 N 2.172888 -0.006093 2.105483 0
M  V30 20 C 3.409228 0.220270 1.375752 0
M  V30 21 N 2.993987 -0.059720 0.032342 0
M  V30 22 C 3.766068 0.165513 -1.168759 0
M  V30 23 C 3.149236 -0.460909 -2.128285 0
M  V30 24 N 1.969940 -1.105606 -1.579133 0
M  V30 25 C 1.240507 -2.126476 -2.310115 0
M  V30 26 N 0.041108 -1.351007 -2.555309 0
M  V30 27 C -0.527293 -0.950036 -3.816863 0
M  V30 28 C -1.757475 -0.465671 -3.569899 0
M  V30 29 C 1.770569 -0.580832 -0.370148 0 RAD=2 VAL=3
M  V30 30 C 1.019898 -0.652411 1.657369 0 RAD=2 VAL=3
M  V30 31 C -1.363104 -1.296035 0.357299 0 RAD=2 VAL=3
M  V30 32 H 1.288794 4.933241 -1.715855 0
M  V30 33 H -0.285389 4.859487 -2.517209 0
M  V30 34 H 1.075132 4.040705 -3.327380 0
M  V30 35 H -2.063182 4.263297 2.861532 0
M  V30 36 H -3.507257 3.410578 2.261414 0
M  V30 37 H -2.641673 2.868875 3.810165 0
M  V30 38 H -2.880912 0.525839 -0.552195 0
M  V30 39 H -3.983901 -0.517989 -1.498288 0
M  V30 40 H -3.915321 -3.226718 -0.315745 0
M  V30 41 H -2.468470 -4.090755 1.557031 0
M  V30 42 H -1.110865 -2.449324 3.542959 0
M  V30 43 H 0.142730 -3.286405 2.597881 0
M  V30 44 H 0.306086 -0.291250 4.831408 0
M  V30 45 H 2.339544 1.090956 4.142645 0
M  V30 46 H 3.780123 1.255883 1.503217 0
M  V30 47 H 4.210865 -0.461159 1.649888 0
M  V30 48 H 4.694189 0.753195 -1.250502 0
M  V30 49 H 3.538459 -0.444879 -3.157781 0
M  V30 50 H 1.714043 -2.495019 -3.211953 0
M  V30 51 H 1.014779 -2.989560 -1.611478 0
M  V30 52 H -0.162310 -0.970246 -4.855247 0
M  V30 53 H -2.581203 -0.044215 -4.168915 0
M  V30 END ATOM
M  V30 BEGIN BOND
M  V30 1 1 1 2
M  V30 2 3 2 3
M  V30 3 9 3 4
M  V30 4 9 5 4
M  V30 5 3 5 6
M  V30 6 1 6 7
M  V30 7 1 4 8
M  V30 8 1 8 9
M  V30 9 1 9 10
M  V30 10 1 10 11
M  V30 11 1 11 12
M  V30 12 2 12 13
M  V30 13 1 13 14
M  V30 14 1 14 15
M  V30 15 1 15 16
M  V30 16 1 16 17
M  V30 17 2 17 18
M  V30 18 1 18 19
M  V30 19 1 19 20
M  V30 20 1 20 21
M  V30 21 1 21 22
M  V30 22 2 22 23
M  V30 23 1 23 24
M  V30 24 1 24 25
M  V30 25 1 25 26
M  V30 26 1 26 27
M  V30 27 2 27 28
M  V30 28 1 24 29
M  V30 29 1 19 30
M  V30 30 1 14 31
M  V30 31 1 29 4
M  V30 32 1 30 4
M  V30 33 1 31 4
M  V30 34 1 26 8
M  V30 35 1 28 9
M  V30 36 1 31 11
M  V30 37 1 30 16
M  V30 38 1 29 21
M  V30 39 1 1 32
M  V30 40 1 1 33
M  V30 41 1 1 34
M  V30 42 1 7 35
M  V30 43 1 7 36
M  V30 44 1 7 37
M  V30 45 1 10 38
M  V30 46 1 10 39
M  V30 47 1 12 40
M  V30 48 1 13 41
M  V30 49 1 15 42
M  V30 50 1 15 43
M  V30 51 1 17 44
M  V30 52 1 18 45
M  V30 53 1 20 46
M  V30 54 1 20 47
M  V30 55 1 22 48
M  V30 56 1 23 49
M  V30 57 1 25 50
M  V30 58 1 25 51
M  V30 59 1 27 52
M  V30 60 1 28 53
M  V30 END BOND
M  V30 END CTAB
M  END
