
  --CCDC--092525    3D                              

 39 44  0  0  0  0  0  0  0  0999 V2000
    0.4186   -0.5002    0.5899 C      0
    1.8291   -0.0951   -0.5685 Si     0
    2.9239   -1.6109   -0.5751 C      0
    1.0581    0.0107   -2.2686 C      0
    2.7153    1.4076   -0.0878 C      0
    3.7817    1.8957   -0.8453 C      0
    5.3477    2.6720   -1.9572 Cr     0
    3.5658    2.4582   -2.9884 C      0
    2.5865    2.3404   -3.5593 O      0
    4.8410    0.7222   -2.4315 C      0
    4.5636   -0.3520   -2.6907 O      0
    7.0662    2.0866   -1.4891 C      0
    6.9069    2.4957   -2.9833 C      0
    6.0170    3.7126   -3.3659 C      0
    5.2855    4.5221   -2.2549 C      0
    5.4452    4.1138   -0.7626 C      0
    6.3358    2.8950   -0.3795 C      0
    2.2419    2.2768    1.4257 Si     0
    2.3674    1.2059    2.9532 C      0
    0.4765    2.8898    1.3742 C      0
    3.2990    3.7831    1.7564 C      0
   -0.2404    0.3570    0.7101 H      0
    0.7928   -0.7820    1.5717 H      0
   -0.1718   -1.3278    0.2023 H      0
    3.8850   -1.3989   -0.1124 H      0
    3.1055   -1.9504   -1.5927 H      0
    2.4567   -2.4252   -0.0251 H      0
    0.3984   -0.8362   -2.4455 H      0
    1.8210    0.0130   -3.0435 H      0
    0.4725    0.9221   -2.3690 H      0
    1.6319    0.4048    2.9240 H      0
    2.1917    1.7944    3.8513 H      0
    3.3550    0.7570    3.0313 H      0
   -0.2152    2.0978    1.6534 H      0
    0.2156    3.2307    0.3744 H      0
    0.3364    3.7205    2.0627 H      0
    4.3447    3.5047    1.8677 H      0
    2.9826    4.2832    2.6694 H      0
    3.2233    4.4946    0.9368 H      0
  1  2  1
  2  3  1
  2  4  1
  2  5  1
  5  6  4
  6  7  4
  7  8  1
  8  9  3
  7 10  1
 10 11  3
  7 12  1
 12 13  4
  7 13  1
 13 14  4
  7 14  1
 14 15  4
  7 15  1
 15 16  4
  7 16  1
 16 17  4
  7 17  1
 12 17  4
  5 18  1
 18 19  1
 18 20  1
 18 21  1
  1 22  1
  1 23  1
  1 24  1
  3 25  1
  3 26  1
  3 27  1
  4 28  1
  4 29  1
  4 30  1
 19 31  1
 19 32  1
 19 33  1
 20 34  1
 20 35  1
 20 36  1
 21 37  1
 21 38  1
 21 39  1
M  END
$$$$
