
 OpenBabel09252518283D

 62 63  0  0  0  0  0  0  0  0999 V2000
    0.9930   -0.0342    0.0937 C   0  0  0  0  0  0  0  0  0  0  0  0
    0.2863   -1.6755   -1.0471 Pt  0  0  0  0  0  0  0  0  0  0  0  0
    2.0173   -2.7830   -0.5260 C   0  0  0  0  0  0  0  0  0  0  0  0
   -0.7131   -2.4332    0.6621 C   0  0  0  0  0  0  0  0  0  0  0  0
   -0.4037   -3.2780   -2.1610 N   0  0  0  0  0  0  0  0  0  0  0  0
    0.5953   -4.6016   -2.6569 N   0  0  0  0  0  0  0  0  0  0  0  0
   -0.6099   -5.5441   -3.5538 C   0  0  0  0  0  0  0  0  0  0  0  0
   -0.3801   -6.8786   -4.2069 C   0  0  0  0  0  0  0  0  0  0  0  0
   -0.9709   -7.9499   -3.2720 C   0  0  0  0  0  0  0  0  0  0  0  0
   -2.4300   -7.5811   -2.9824 C   0  0  0  0  0  0  0  0  0  0  0  0
   -3.1316   -7.6112   -4.3240 C   0  0  0  0  0  0  0  0  0  0  0  0
   -2.9709   -6.3361   -5.1309 C   0  0  0  0  0  0  0  0  0  0  0  0
   -3.0478   -5.0914   -4.2570 C   0  0  0  0  0  0  0  0  0  0  0  0
   -1.7412   -4.8166   -3.5147 C   0  0  0  0  0  0  0  0  0  0  0  0
   -1.6306   -3.5898   -2.7164 N   0  0  0  0  0  0  0  0  0  0  0  0
   -1.6978   -0.4060   -1.6444 P   0  0  0  0  0  4  0  0  0  0  0  0
   -1.2911    1.3778   -1.6858 C   0  0  0  0  0  0  0  0  0  0  0  0
   -2.2873   -0.9357   -3.2939 C   0  0  0  0  0  0  0  0  0  0  0  0
   -3.0092   -0.7040   -0.4033 C   0  0  0  0  0  0  0  0  0  0  0  0
    1.4318   -0.8069   -3.0063 P   0  0  0  0  0  4  0  0  0  0  0  0
    0.7869    0.8595   -3.4011 C   0  0  0  0  0  0  0  0  0  0  0  0
    3.2269   -0.7016   -2.6666 C   0  0  0  0  0  0  0  0  0  0  0  0
    1.1442   -1.9246   -4.4265 C   0  0  0  0  0  0  0  0  0  0  0  0
    0.6363   -0.1187    1.0990 H   0  0  0  0  0  0  0  0  0  0  0  0
    0.6363    0.8786   -0.3358 H   0  0  0  0  0  0  0  0  0  0  0  0
    2.0630   -0.0342    0.0937 H   0  0  0  0  0  0  0  0  0  0  0  0
    2.3619   -2.4732    0.4385 H   0  0  0  0  0  0  0  0  0  0  0  0
    1.7795   -3.8259   -0.5018 H   0  0  0  0  0  0  0  0  0  0  0  0
    2.7840   -2.6087   -1.2517 H   0  0  0  0  0  0  0  0  0  0  0  0
   -1.7627   -2.4948    0.4635 H   0  0  0  0  0  0  0  0  0  0  0  0
   -0.3360   -3.4076    0.8930 H   0  0  0  0  0  0  0  0  0  0  0  0
   -0.5449   -1.7797    1.4925 H   0  0  0  0  0  0  0  0  0  0  0  0
   -0.8455   -6.9158   -5.1696 H   0  0  0  0  0  0  0  0  0  0  0  0
    0.6683   -7.0460   -4.3402 H   0  0  0  0  0  0  0  0  0  0  0  0
   -0.4127   -7.9931   -2.3602 H   0  0  0  0  0  0  0  0  0  0  0  0
   -0.9268   -8.9083   -3.7458 H   0  0  0  0  0  0  0  0  0  0  0  0
   -2.5107   -6.6220   -2.5148 H   0  0  0  0  0  0  0  0  0  0  0  0
   -2.8697   -8.2924   -2.3149 H   0  0  0  0  0  0  0  0  0  0  0  0
   -2.6807   -8.3975   -4.8926 H   0  0  0  0  0  0  0  0  0  0  0  0
   -4.1756   -7.7733   -4.1546 H   0  0  0  0  0  0  0  0  0  0  0  0
   -2.0049   -6.3567   -5.5906 H   0  0  0  0  0  0  0  0  0  0  0  0
   -3.7489   -6.2914   -5.8641 H   0  0  0  0  0  0  0  0  0  0  0  0
   -3.2401   -4.2559   -4.8972 H   0  0  0  0  0  0  0  0  0  0  0  0
   -3.8293   -5.2243   -3.5384 H   0  0  0  0  0  0  0  0  0  0  0  0
   -0.5244    1.5520   -2.4115 H   0  0  0  0  0  0  0  0  0  0  0  0
   -2.1648    1.9367   -1.9488 H   0  0  0  0  0  0  0  0  0  0  0  0
   -0.9465    1.6875   -0.7214 H   0  0  0  0  0  0  0  0  0  0  0  0
   -2.5250   -1.9787   -3.2697 H   0  0  0  0  0  0  0  0  0  0  0  0
   -3.1609   -0.3768   -3.5569 H   0  0  0  0  0  0  0  0  0  0  0  0
   -1.5205   -0.7615   -4.0195 H   0  0  0  0  0  0  0  0  0  0  0  0
   -3.2470   -1.7470   -0.3791 H   0  0  0  0  0  0  0  0  0  0  0  0
   -2.6645   -0.3943    0.5612 H   0  0  0  0  0  0  0  0  0  0  0  0
   -3.8828   -0.1450   -0.6663 H   0  0  0  0  0  0  0  0  0  0  0  0
    0.9551    1.5130   -2.5707 H   0  0  0  0  0  0  0  0  0  0  0  0
    1.2913    1.2420   -4.2638 H   0  0  0  0  0  0  0  0  0  0  0  0
   -0.2627    0.7980   -3.5997 H   0  0  0  0  0  0  0  0  0  0  0  0
    3.6040   -1.6760   -2.4357 H   0  0  0  0  0  0  0  0  0  0  0  0
    3.7313   -0.3192   -3.5293 H   0  0  0  0  0  0  0  0  0  0  0  0
    3.3951   -0.0481   -1.8362 H   0  0  0  0  0  0  0  0  0  0  0  0
    1.5213   -2.8990   -4.1956 H   0  0  0  0  0  0  0  0  0  0  0  0
    0.0946   -1.9862   -4.6251 H   0  0  0  0  0  0  0  0  0  0  0  0
    1.6486   -1.5421   -5.2891 H   0  0  0  0  0  0  0  0  0  0  0  0
  1  2  1  0  0  0  0
  1 24  1  0  0  0  0
  1 25  1  0  0  0  0
  1 26  1  0  0  0  0
  2  3  1  0  0  0  0
  2  4  1  0  0  0  0
  2  5  1  0  0  0  0
  2 16  1  0  0  0  0
  2 20  1  0  0  0  0
  3 27  1  0  0  0  0
  3 28  1  0  0  0  0
  3 29  1  0  0  0  0
  4 30  1  0  0  0  0
  4 31  1  0  0  0  0
  4 32  1  0  0  0  0
  5  6  1  0  0  0  0
  5 15  1  0  0  0  0
  6  7  2  0  0  0  0
  7  8  1  0  0  0  0
  7 14  1  0  0  0  0
  8  9  1  0  0  0  0
  8 33  1  0  0  0  0
  8 34  1  0  0  0  0
  9 10  1  0  0  0  0
  9 35  1  0  0  0  0
  9 36  1  0  0  0  0
 10 11  1  0  0  0  0
 10 37  1  0  0  0  0
 10 38  1  0  0  0  0
 11 12  1  0  0  0  0
 11 39  1  0  0  0  0
 11 40  1  0  0  0  0
 12 13  1  0  0  0  0
 12 41  1  0  0  0  0
 12 42  1  0  0  0  0
 13 14  1  0  0  0  0
 13 43  1  0  0  0  0
 13 44  1  0  0  0  0
 14 15  2  0  0  0  0
 16 17  1  0  0  0  0
 16 18  1  0  0  0  0
 16 19  1  0  0  0  0
 17 45  1  0  0  0  0
 17 46  1  0  0  0  0
 17 47  1  0  0  0  0
 18 48  1  0  0  0  0
 18 49  1  0  0  0  0
 18 50  1  0  0  0  0
 19 51  1  0  0  0  0
 19 52  1  0  0  0  0
 19 53  1  0  0  0  0
 20 21  1  0  0  0  0
 20 22  1  0  0  0  0
 20 23  1  0  0  0  0
 21 54  1  0  0  0  0
 21 55  1  0  0  0  0
 21 56  1  0  0  0  0
 22 57  1  0  0  0  0
 22 58  1  0  0  0  0
 22 59  1  0  0  0  0
 23 60  1  0  0  0  0
 23 61  1  0  0  0  0
 23 62  1  0  0  0  0
M  END
$$$$
