
 OpenBabel09252512553D

 57 60  0  0  0  0  0  0  0  0999 V2000
    1.2425   -0.6081    0.0168 C   0  0  0  0  0  0  0  0  0  0  0  0
    0.4467   -1.0382   -1.0832 O   0  0  0  0  0  0  0  0  0  0  0  0
    0.7354   -0.4552   -2.2922 C   0  0  0  0  0  0  0  0  0  0  0  0
    2.0051    0.0475   -2.6141 C   0  0  0  0  0  0  0  0  0  0  0  0
    2.2373    0.6537   -3.8501 C   0  0  0  0  0  0  0  0  0  0  0  0
    1.2093    0.7446   -4.7834 C   0  0  0  0  0  0  0  0  0  0  0  0
   -0.0514    0.2222   -4.4843 C   0  0  0  0  0  0  0  0  0  0  0  0
   -0.2981   -0.3837   -3.2437 C   0  0  0  0  0  0  0  0  0  0  0  0
   -1.6395   -0.8264   -2.9525 C   0  0  0  0  0  0  0  0  0  0  0  0
   -2.7897   -1.0727   -2.6954 C   0  0  0  0  0  0  0  0  0  0  0  0
   -4.1791   -1.3262   -2.3971 C   0  0  0  0  0  0  0  0  0  0  0  0
   -4.8512   -0.7865   -1.3472 C   0  0  0  0  0  0  0  0  0  0  0  0
   -4.3219    0.3052   -0.5420 N   0  0  0  0  0  0  0  0  0  0  0  0
   -3.1145    1.0523   -0.6459 C   0  0  0  0  0  0  0  0  0  0  0  0
   -2.8131    1.8522   -1.7512 C   0  0  0  0  0  0  0  0  0  0  0  0
   -1.6254    2.5923   -1.7765 C   0  0  0  0  0  0  0  0  0  0  0  0
   -0.7806    2.6022   -0.6667 C   0  0  0  0  0  0  0  0  0  0  0  0
   -1.1298    1.8877    0.4765 C   0  0  0  0  0  0  0  0  0  0  0  0
   -2.2890    1.1119    0.4832 C   0  0  0  0  0  0  0  0  0  0  0  0
   -5.5978    1.1016    0.2798 S   0  0  0  0  0  0  0  0  0  0  0  0
   -5.3780    1.0206    1.7094 O   0  0  0  0  0  0  0  0  0  0  0  0
   -5.9587    2.3302   -0.3931 O   0  0  0  0  0  0  0  0  0  0  0  0
   -6.7954   -0.0924   -0.1319 C   0  0  0  0  0  0  0  0  0  0  0  0
   -8.0943   -0.1127    0.3601 C   0  0  0  0  0  0  0  0  0  0  0  0
   -8.8518   -1.2533    0.1210 C   0  0  0  0  0  0  0  0  0  0  0  0
   -8.2516   -2.3661   -0.4749 C   0  0  0  0  0  0  0  0  0  0  0  0
   -6.9180   -2.3121   -0.9043 C   0  0  0  0  0  0  0  0  0  0  0  0
   -6.2184   -1.1163   -0.8706 C   0  0  0  0  0  0  0  0  0  0  0  0
   -4.8589   -2.5180   -3.7772 Si  0  0  0  0  0  0  0  0  0  0  0  0
   -4.5639   -1.7142   -5.4796 C   0  0  0  0  0  0  0  0  0  0  0  0
   -3.8564   -4.1203   -3.6705 C   0  0  0  0  0  0  0  0  0  0  0  0
   -6.6740   -3.0010   -3.8566 C   0  0  0  0  0  0  0  0  0  0  0  0
    0.7151   -0.8729    0.9380 H   0  0  0  0  0  0  0  0  0  0  0  0
    1.3910    0.4776    0.0210 H   0  0  0  0  0  0  0  0  0  0  0  0
    2.2073   -1.1241    0.0198 H   0  0  0  0  0  0  0  0  0  0  0  0
    2.8343   -0.0214   -1.9171 H   0  0  0  0  0  0  0  0  0  0  0  0
    3.2215    1.0547   -4.0809 H   0  0  0  0  0  0  0  0  0  0  0  0
    1.3878    1.2246   -5.7423 H   0  0  0  0  0  0  0  0  0  0  0  0
   -0.8488    0.3094   -5.2184 H   0  0  0  0  0  0  0  0  0  0  0  0
   -3.4713    1.8691   -2.6144 H   0  0  0  0  0  0  0  0  0  0  0  0
   -1.3499    3.1478   -2.6690 H   0  0  0  0  0  0  0  0  0  0  0  0
    0.1493    3.1642   -0.6938 H   0  0  0  0  0  0  0  0  0  0  0  0
   -0.4941    1.9168    1.3570 H   0  0  0  0  0  0  0  0  0  0  0  0
   -2.5528    0.5544    1.3789 H   0  0  0  0  0  0  0  0  0  0  0  0
   -8.4949    0.7229    0.9250 H   0  0  0  0  0  0  0  0  0  0  0  0
   -9.8860   -1.3065    0.4519 H   0  0  0  0  0  0  0  0  0  0  0  0
   -8.8158   -3.2893   -0.5908 H   0  0  0  0  0  0  0  0  0  0  0  0
   -6.4435   -3.2254   -1.2423 H   0  0  0  0  0  0  0  0  0  0  0  0
   -3.5038   -1.5414   -5.6710 H   0  0  0  0  0  0  0  0  0  0  0  0
   -4.9610   -2.3700   -6.2620 H   0  0  0  0  0  0  0  0  0  0  0  0
   -5.1029   -0.7630   -5.5328 H   0  0  0  0  0  0  0  0  0  0  0  0
   -3.8848   -4.5085   -2.6474 H   0  0  0  0  0  0  0  0  0  0  0  0
   -4.2795   -4.8783   -4.3361 H   0  0  0  0  0  0  0  0  0  0  0  0
   -2.8140   -3.9504   -3.9515 H   0  0  0  0  0  0  0  0  0  0  0  0
   -6.9130   -3.8284   -3.1836 H   0  0  0  0  0  0  0  0  0  0  0  0
   -7.3372   -2.1545   -3.6616 H   0  0  0  0  0  0  0  0  0  0  0  0
   -6.9085   -3.3685   -4.8620 H   0  0  0  0  0  0  0  0  0  0  0  0
  1  2  1  0  0  0  0
  1 33  1  0  0  0  0
  1 34  1  0  0  0  0
  1 35  1  0  0  0  0
  2  3  1  0  0  0  0
  3  4  1  0  0  0  0
  3  8  2  0  0  0  0
  4  5  2  0  0  0  0
  4 36  1  0  0  0  0
  5  6  1  0  0  0  0
  5 37  1  0  0  0  0
  6  7  2  0  0  0  0
  6 38  1  0  0  0  0
  7  8  1  0  0  0  0
  7 39  1  0  0  0  0
  8  9  1  0  0  0  0
  9 10  3  0  0  0  0
 10 11  1  0  0  0  0
 11 12  2  0  0  0  0
 11 29  1  0  0  0  0
 12 13  1  0  0  0  0
 12 28  1  0  0  0  0
 13 14  1  0  0  0  0
 13 20  1  0  0  0  0
 14 15  1  0  0  0  0
 14 19  2  0  0  0  0
 15 16  2  0  0  0  0
 15 40  1  0  0  0  0
 16 17  1  0  0  0  0
 16 41  1  0  0  0  0
 17 18  2  0  0  0  0
 17 42  1  0  0  0  0
 18 19  1  0  0  0  0
 18 43  1  0  0  0  0
 19 44  1  0  0  0  0
 20 21  2  0  0  0  0
 20 22  2  0  0  0  0
 20 23  1  0  0  0  0
 23 24  1  0  0  0  0
 23 28  2  0  0  0  0
 24 25  2  0  0  0  0
 24 45  1  0  0  0  0
 25 26  1  0  0  0  0
 25 46  1  0  0  0  0
 26 27  2  0  0  0  0
 26 47  1  0  0  0  0
 27 28  1  0  0  0  0
 27 48  1  0  0  0  0
 29 30  1  0  0  0  0
 29 31  1  0  0  0  0
 29 32  1  0  0  0  0
 30 49  1  0  0  0  0
 30 50  1  0  0  0  0
 30 51  1  0  0  0  0
 31 52  1  0  0  0  0
 31 53  1  0  0  0  0
 31 54  1  0  0  0  0
 32 55  1  0  0  0  0
 32 56  1  0  0  0  0
 32 57  1  0  0  0  0
M  END
$$$$
