
 OpenBabel09252517333D

 44 49  0  0  0  0  0  0  0  0999 V2000
    1.0828   -0.0558   -0.0058 C   0  0  0  0  0  0  0  0  0  0  0  0
    0.5761    1.2166   -0.6651 C   0  0  0  0  0  0  0  0  0  0  0  0
    1.0069    2.1960    1.1650 C   0  0  0  0  0  0  0  0  0  0  0  0
    0.3082    2.7082   -0.8245 Ir  0  0  0  0  0  0  0  0  0  0  0  0
   -1.6477    1.4310   -2.3424 C   0  0  0  0  0  0  0  0  0  0  0  0
   -0.5885    1.7014   -1.5327 C   0  0  0  0  0  0  0  0  0  0  0  0
    1.2482    3.6085   -1.5835 C   0  0  0  0  0  0  0  0  0  0  0  0
    2.0093    3.4346   -2.7125 C   0  0  0  0  0  0  0  0  0  0  0  0
    1.9864    2.1053   -3.4492 C   0  0  0  0  0  0  0  0  0  0  0  0
    1.0422    4.9141    0.0389 P   0  0  0  0  0  4  0  0  0  0  0  0
    2.8235    4.8452    0.4527 C   0  0  0  0  0  0  0  0  0  0  0  0
    3.5207    4.5419   -0.6385 F   0  0  0  0  0  0  0  0  0  0  0  0
    3.2171    6.0282    0.9158 F   0  0  0  0  0  0  0  0  0  0  0  0
    3.0272    3.9154    1.3816 F   0  0  0  0  0  0  0  0  0  0  0  0
    0.7619    6.1934   -1.2392 C   0  0  0  0  0  0  0  0  0  0  0  0
    1.4591    5.8901   -2.3305 F   0  0  0  0  0  0  0  0  0  0  0  0
   -0.5327    6.2435   -1.5399 F   0  0  0  0  0  0  0  0  0  0  0  0
    1.1556    7.3764   -0.7762 F   0  0  0  0  0  0  0  0  0  0  0  0
    2.8059    4.4832   -3.1835 C   0  0  0  0  0  0  0  0  0  0  0  0
    2.8086    5.7040   -2.5035 C   0  0  0  0  0  0  0  0  0  0  0  0
    2.0371    5.8710   -1.3768 C   0  0  0  0  0  0  0  0  0  0  0  0
    1.2470    4.8237   -0.9015 C   0  0  0  0  0  0  0  0  0  0  0  0
    0.3962    4.7557    0.2020 C   0  0  0  0  0  0  0  0  0  0  0  0
   -0.1930    3.5515    0.3194 P   0  0  0  0  0  4  0  0  0  0  0  0
    0.2072    2.7788    1.9293 C   0  0  0  0  0  0  0  0  0  0  0  0
   -0.2351    3.5542    2.9153 F   0  0  0  0  0  0  0  0  0  0  0  0
   -0.3774    1.5867    2.0065 F   0  0  0  0  0  0  0  0  0  0  0  0
    1.5250    2.6341    2.0363 F   0  0  0  0  0  0  0  0  0  0  0  0
   -2.0119    3.7279    0.2224 C   0  0  0  0  0  0  0  0  0  0  0  0
   -2.3400    4.3121   -0.9265 F   0  0  0  0  0  0  0  0  0  0  0  0
   -2.5779    2.5260    0.2860 F   0  0  0  0  0  0  0  0  0  0  0  0
   -2.4397    4.4737    1.2371 F   0  0  0  0  0  0  0  0  0  0  0  0
    0.7261   -0.9056   -0.5494 H   0  0  0  0  0  0  0  0  0  0  0  0
    0.7261   -0.1017    1.0020 H   0  0  0  0  0  0  0  0  0  0  0  0
    2.1528   -0.0558   -0.0058 H   0  0  0  0  0  0  0  0  0  0  0  0
    1.1267    2.9610    1.9034 H   0  0  0  0  0  0  0  0  0  0  0  0
   -2.2238    2.2326   -2.7553 H   0  0  0  0  0  0  0  0  0  0  0  0
    0.9892    1.8957   -3.7758 H   0  0  0  0  0  0  0  0  0  0  0  0
    2.6362    2.1566   -4.2978 H   0  0  0  0  0  0  0  0  0  0  0  0
    3.4087    4.3517   -4.0577 H   0  0  0  0  0  0  0  0  0  0  0  0
    3.4129    6.5117   -2.8605 H   0  0  0  0  0  0  0  0  0  0  0  0
    2.0430    6.8091   -0.8621 H   0  0  0  0  0  0  0  0  0  0  0  0
    0.9854    4.9188    1.0802 H   0  0  0  0  0  0  0  0  0  0  0  0
   -0.3636    5.5018    0.0971 H   0  0  0  0  0  0  0  0  0  0  0  0
  1  2  1  0  0  0  0
  1 33  1  0  0  0  0
  1 34  1  0  0  0  0
  1 35  1  0  0  0  0
  2  3  2  0  0  0  0
  2  4  1  0  0  0  0
  2  6  1  0  0  0  0
  3  4  1  0  0  0  0
  3 36  1  0  0  0  0
  4  5  1  0  0  0  0
  4  6  1  0  0  0  0
  4  7  1  0  0  0  0
  4 10  1  0  0  0  0
  4 24  1  0  0  0  0
  5  6  2  0  0  0  0
  5 37  1  0  0  0  0
  7  8  1  0  0  0  0
  7 22  2  0  0  0  0
  8  9  1  0  0  0  0
  8 19  2  0  0  0  0
  9 10  1  0  0  0  0
  9 38  1  0  0  0  0
  9 39  1  0  0  0  0
 10 11  1  0  0  0  0
 10 15  1  0  0  0  0
 11 12  1  0  0  0  0
 11 13  1  0  0  0  0
 11 14  1  0  0  0  0
 15 16  1  0  0  0  0
 15 17  1  0  0  0  0
 15 18  1  0  0  0  0
 19 20  1  0  0  0  0
 19 40  1  0  0  0  0
 20 21  2  0  0  0  0
 20 41  1  0  0  0  0
 21 22  1  0  0  0  0
 21 42  1  0  0  0  0
 22 23  1  0  0  0  0
 23 24  1  0  0  0  0
 23 43  1  0  0  0  0
 23 44  1  0  0  0  0
 24 25  1  0  0  0  0
 24 29  1  0  0  0  0
 25 26  1  0  0  0  0
 25 27  1  0  0  0  0
 25 28  1  0  0  0  0
 29 30  1  0  0  0  0
 29 31  1  0  0  0  0
 29 32  1  0  0  0  0
M  END
$$$$
