
  --CCDC--092525    3D                              

 44 49  0  0  0  0  0  0  0  0999 V2000
    0.3883    0.3009   -0.2617 C      0
    1.5920    1.1371    0.1049 C      0
    2.7165    0.4096   -0.4427 C      0
    2.8020    0.3292    1.5653 Ir     0
    2.1126    1.7026    2.8670 C      0
    1.5004    1.8950    1.5710 C      0
    4.1019   -1.3364    1.4122 C      0
    3.8826   -2.6331    1.8890 C      0
    3.1091   -2.7513    3.1744 C      0
    1.8546   -1.5005    2.9136 P      0
    1.2809   -0.9095    4.5245 C      0
    0.8419   -1.9262    5.2574 F      0
    0.2858   -0.0421    4.3790 F      0
    2.2705   -0.3148    5.1808 F      0
    0.4680   -2.3152    2.0843 C      0
    0.8500   -2.8341    0.9230 F      0
   -0.5337   -1.4668    1.8852 F      0
    0.0146   -3.3072    2.8420 F      0
    4.4822   -3.7498    1.3149 C      0
    5.5117   -3.5864    0.4077 C      0
    5.9900   -2.3074    0.1938 C      0
    5.3344   -1.2176    0.7593 C      0
    5.9722    0.1517    0.8092 C      0
    5.1062    0.8291    2.2382 P      0
    5.6490    0.1047    3.8085 C      0
    4.8570    0.5036    4.7971 F      0
    6.8829    0.5127    4.0819 F      0
    5.6678   -1.2219    3.7897 F      0
    5.3733    2.6172    2.2985 C      0
    4.6615    3.1609    3.2790 F      0
    5.0095    3.1790    1.1515 F      0
    6.6563    2.8864    2.5111 F      0
    0.0700    0.5136   -1.2801 H      0
   -0.4465    0.5079    0.4047 H      0
    0.6228   -0.7571   -0.2007 H      0
    2.9155   -0.2566   -1.2664 H      0
    2.1664    2.0661    3.8878 H      0
    2.6816   -3.7478    3.3404 H      0
    3.7421   -2.5115    4.0365 H      0
    4.1711   -4.7465    1.6098 H      0
    5.9684   -4.4420   -0.0787 H      0
    6.8846   -2.1546   -0.4007 H      0
    7.0594    0.1183    0.9515 H      0
    5.7637    0.7227   -0.1039 H      0
  1  2  1
  2  3  2
  3  4  1
  2  4  1
  4  5  1
  5  6  2
  2  6  1
  4  6  1
  4  7  1
  7  8  4
  8  9  1
  9 10  1
  4 10  1
 10 11  1
 11 12  1
 11 13  1
 11 14  1
 10 15  1
 15 16  1
 15 17  1
 15 18  1
  8 19  4
 19 20  4
 20 21  4
 21 22  4
  7 22  4
 22 23  1
 23 24  1
  4 24  1
 24 25  1
 25 26  1
 25 27  1
 25 28  1
 24 29  1
 29 30  1
 29 31  1
 29 32  1
  1 33  1
  1 34  1
  1 35  1
  3 36  1
  5 37  1
  9 38  1
  9 39  1
 19 40  1
 20 41  1
 21 42  1
 23 43  1
 23 44  1
M  END
$$$$
