
 OpenBabel09252519443D

 53 57  0  0  0  0  0  0  0  0999 V2000
    1.0000    0.0127    0.0992 I   0  0  0  0  0  0  0  0  0  0  0  0
    3.7100    0.0127    0.0992 Cu  0  0  0  0  0  0  0  0  0  0  0  0
    4.4035    1.2155    0.0997 S   0  0  0  0  0  3  0  0  0  0  0  0
    5.6706    1.2649    0.4452 P   0  0  0  0  0  0  0  0  0  0  0  0
    6.4288    0.0350    0.8533 C   0  0  0  0  0  0  0  0  0  0  0  0
    5.6925   -1.2089    0.4491 P   0  0  0  0  0  0  0  0  0  0  0  0
    4.3924   -1.1708    0.0987 S   0  0  0  0  0  3  0  0  0  0  0  0
    5.7488   -2.9931    0.0462 C   0  0  0  0  0  0  0  0  0  0  0  0
    6.0802   -3.8877    1.0504 C   0  0  0  0  0  0  0  0  0  0  0  0
    6.3788   -5.1894    0.5830 C   0  0  0  0  0  0  0  0  0  0  0  0
    6.0439   -5.6529   -0.6074 C   0  0  0  0  0  0  0  0  0  0  0  0
    5.6601   -4.7250   -1.5354 C   0  0  0  0  0  0  0  0  0  0  0  0
    5.4739   -3.4097   -1.1843 C   0  0  0  0  0  0  0  0  0  0  0  0
    6.0762    0.0327   -0.8393 C   0  0  0  0  0  0  0  0  0  0  0  0
    6.8471   -0.2495   -1.9549 C   0  0  0  0  0  0  0  0  0  0  0  0
    7.1368    0.8824   -2.7529 C   0  0  0  0  0  0  0  0  0  0  0  0
    6.4784    2.0259   -2.6978 C   0  0  0  0  0  0  0  0  0  0  0  0
    5.6805    2.2161   -1.6039 C   0  0  0  0  0  0  0  0  0  0  0  0
    5.4537    1.1983   -0.7092 C   0  0  0  0  0  0  0  0  0  0  0  0
    6.5653    1.2868   -1.1510 C   0  0  0  0  0  0  0  0  0  0  0  0
    7.3364    2.3886   -1.4826 C   0  0  0  0  0  0  0  0  0  0  0  0
    7.7349    2.4219   -2.8399 C   0  0  0  0  0  0  0  0  0  0  0  0
    7.7186    1.3798   -3.6510 C   0  0  0  0  0  0  0  0  0  0  0  0
    6.9949    0.2969   -3.2353 C   0  0  0  0  0  0  0  0  0  0  0  0
    6.4632    0.2460   -1.9693 C   0  0  0  0  0  0  0  0  0  0  0  0
    4.0959    0.3452    0.5989 C   0  0  0  0  0  0  0  0  0  0  0  0
    3.2788    0.2099   -0.5112 C   0  0  0  0  0  0  0  0  0  0  0  0
    1.9764   -0.2545   -0.2112 C   0  0  0  0  0  0  0  0  0  0  0  0
    1.6357   -0.8529    0.9157 C   0  0  0  0  0  0  0  0  0  0  0  0
    2.5171   -0.7398    1.9548 C   0  0  0  0  0  0  0  0  0  0  0  0
    3.7582   -0.1798    1.7709 C   0  0  0  0  0  0  0  0  0  0  0  0
    6.5354    0.0376    1.9180 H   0  0  0  0  0  0  0  0  0  0  0  0
    7.3887    0.0427    0.3807 H   0  0  0  0  0  0  0  0  0  0  0  0
    6.1078   -3.6188    2.0857 H   0  0  0  0  0  0  0  0  0  0  0  0
    6.9132   -5.8437    1.2396 H   0  0  0  0  0  0  0  0  0  0  0  0
    6.0715   -6.6984   -0.8335 H   0  0  0  0  0  0  0  0  0  0  0  0
    5.5025   -5.0275   -2.5496 H   0  0  0  0  0  0  0  0  0  0  0  0
    5.1040   -2.7148   -1.9091 H   0  0  0  0  0  0  0  0  0  0  0  0
    7.1923   -1.2342   -2.1918 H   0  0  0  0  0  0  0  0  0  0  0  0
    7.9455    0.8067   -3.4494 H   0  0  0  0  0  0  0  0  0  0  0  0
    6.5648    2.7638   -3.4678 H   0  0  0  0  0  0  0  0  0  0  0  0
    5.2261    3.1713   -1.4423 H   0  0  0  0  0  0  0  0  0  0  0  0
    4.7692    1.3464    0.0999 H   0  0  0  0  0  0  0  0  0  0  0  0
    7.6062    3.1459   -0.7765 H   0  0  0  0  0  0  0  0  0  0  0  0
    8.0731    3.3563   -3.2367 H   0  0  0  0  0  0  0  0  0  0  0  0
    8.2436    1.3829   -4.5834 H   0  0  0  0  0  0  0  0  0  0  0  0
    6.8403   -0.5228   -3.9054 H   0  0  0  0  0  0  0  0  0  0  0  0
    5.9623   -0.6402   -1.6399 H   0  0  0  0  0  0  0  0  0  0  0  0
    3.6030    0.4362   -1.5055 H   0  0  0  0  0  0  0  0  0  0  0  0
    1.2145   -0.1110   -0.9487 H   0  0  0  0  0  0  0  0  0  0  0  0
    0.7192   -1.3969    1.0104 H   0  0  0  0  0  0  0  0  0  0  0  0
    2.2362   -1.0926    2.9252 H   0  0  0  0  0  0  0  0  0  0  0  0
    4.4590   -0.1666    2.5794 H   0  0  0  0  0  0  0  0  0  0  0  0
  1  2  1  0  0  0  0
  2  3  1  0  0  0  0
  2  7  1  0  0  0  0
  3  4  2  0  0  0  0
  4  5  1  0  0  0  0
  4 20  1  0  0  0  0
  4 26  1  0  0  0  0
  5  6  1  0  0  0  0
  5 32  1  0  0  0  0
  5 33  1  0  0  0  0
  6  7  2  0  0  0  0
  6  8  1  0  0  0  0
  6 14  1  0  0  0  0
  8  9  1  0  0  0  0
  8 13  2  0  0  0  0
  9 10  2  0  0  0  0
  9 34  1  0  0  0  0
 10 11  1  0  0  0  0
 10 35  1  0  0  0  0
 11 12  2  0  0  0  0
 11 36  1  0  0  0  0
 12 13  1  0  0  0  0
 12 37  1  0  0  0  0
 13 38  1  0  0  0  0
 14 15  1  0  0  0  0
 14 19  2  0  0  0  0
 15 16  2  0  0  0  0
 15 39  1  0  0  0  0
 16 17  1  0  0  0  0
 16 40  1  0  0  0  0
 17 18  2  0  0  0  0
 17 41  1  0  0  0  0
 18 19  1  0  0  0  0
 18 42  1  0  0  0  0
 19 43  1  0  0  0  0
 20 21  1  0  0  0  0
 20 25  2  0  0  0  0
 21 22  2  0  0  0  0
 21 44  1  0  0  0  0
 22 23  1  0  0  0  0
 22 45  1  0  0  0  0
 23 24  2  0  0  0  0
 23 46  1  0  0  0  0
 24 25  1  0  0  0  0
 24 47  1  0  0  0  0
 25 48  1  0  0  0  0
 26 27  1  0  0  0  0
 26 31  2  0  0  0  0
 27 28  2  0  0  0  0
 27 49  1  0  0  0  0
 28 29  1  0  0  0  0
 28 50  1  0  0  0  0
 29 30  2  0  0  0  0
 29 51  1  0  0  0  0
 30 31  1  0  0  0  0
 30 52  1  0  0  0  0
 31 53  1  0  0  0  0
M  END
$$$$
