
     RDKit          3D

 23 24  0  0  0  0  0  0  0  0999 V2000
   -2.8816    0.9052    2.0710 O   0  0  0  0  0  0  0  0  0  0  0  0
   -2.4423    0.4199    1.0598 C   0  0  0  0  0  0  0  0  0  0  0  0
   -2.1435   -0.9830    0.5039 C   0  0  0  0  0  0  0  0  0  0  0  0
   -2.1239   -0.2729   -0.8569 C   0  0  0  0  0  0  0  0  0  0  0  0
   -2.0908    1.0087   -0.1159 N   0  0  0  0  0  0  0  0  0  0  0  0
   -0.6159   -0.3876   -1.8329 S   0  0  0  0  0  0  0  0  0  0  0  0
   -0.4950   -1.7622   -2.2936 O   0  0  0  0  0  0  0  0  0  0  0  0
   -0.6167    0.6840   -2.8171 O   0  0  0  0  0  0  0  0  0  0  0  0
    0.8036   -0.0923   -0.7881 C   0  0  0  0  0  0  0  0  0  0  0  0
    1.5351   -1.1731   -0.2865 C   0  0  0  0  0  0  0  0  0  0  0  0
    2.6468   -0.9317    0.5205 C   0  0  0  0  0  0  0  0  0  0  0  0
    3.0289    0.3792    0.8109 C   0  0  0  0  0  0  0  0  0  0  0  0
    2.3079    1.4543    0.2886 C   0  0  0  0  0  0  0  0  0  0  0  0
    1.1956    1.2223   -0.5199 C   0  0  0  0  0  0  0  0  0  0  0  0
   -1.2081   -1.4089    0.8717 H   0  0  0  0  0  0  0  0  0  0  0  0
   -2.9580   -1.6990    0.6368 H   0  0  0  0  0  0  0  0  0  0  0  0
   -3.0274   -0.3765   -1.4665 H   0  0  0  0  0  0  0  0  0  0  0  0
   -2.5595    1.8736   -0.3558 H   0  0  0  0  0  0  0  0  0  0  0  0
    1.2563   -2.1981   -0.5201 H   0  0  0  0  0  0  0  0  0  0  0  0
    3.2225   -1.7645    0.9176 H   0  0  0  0  0  0  0  0  0  0  0  0
    3.8986    0.5640    1.4374 H   0  0  0  0  0  0  0  0  0  0  0  0
    2.6189    2.4733    0.5068 H   0  0  0  0  0  0  0  0  0  0  0  0
    0.6485    2.0652   -0.9360 H   0  0  0  0  0  0  0  0  0  0  0  0
  1  2  2  0
  2  3  1  0
  3  4  1  0
  4  5  1  0
  4  6  1  0
  6  7  2  0
  6  8  2  0
  6  9  1  0
  9 10  2  0
 10 11  1  0
 11 12  2  0
 12 13  1  0
 13 14  2  0
  5  2  1  0
 14  9  1  0
  3 15  1  0
  3 16  1  0
  4 17  1  0
  5 18  1  0
 10 19  1  0
 11 20  1  0
 12 21  1  0
 13 22  1  0
 14 23  1  0
M  END
