
  --CCDC--092525    3D                              

 80 84  0  0  0  0  0  0  0  0999 V2000
    3.0261    3.4756    1.1760 Cl     0
    1.5668    3.0728   -0.7503 Ru     0
   -0.0987    2.7735    0.5559 C      0
   -1.0969    1.6633    0.3105 C      0
   -2.0577    1.4502    1.3087 C      0
   -2.9626    0.4092    1.2364 C      0
   -2.9201   -0.4405    0.1568 C      0
   -1.9793   -0.2503   -0.8429 C      0
   -1.0481    0.7949   -0.8001 C      0
   -0.0632    0.9607   -1.9523 C      0
   -0.1681   -0.2792   -2.8198 C      0
    1.2796    1.0972   -1.5147 N      0
    1.5751    0.1315   -0.5160 C      0
    2.1452    0.9066   -2.6251 C      0
    3.4819    3.3626   -2.2505 Cl     0
    0.5826    4.7352   -1.6712 C      0
    1.4950    5.8566   -1.8958 N      0
    0.9901    7.1037   -1.3520 C      0
   -0.2075    6.7122   -0.5021 C      0
   -0.4814    5.3367   -0.8869 N      0
   -1.7619    4.6745   -0.6454 C      0
   -2.4149    4.7126    0.6104 C      0
   -2.1031    5.6200    1.7712 C      0
   -3.5048    3.8783    0.8398 C      0
   -4.0406    3.0555   -0.1279 C      0
   -5.2055    2.1420    0.1657 C      0
   -3.4898    3.1430   -1.3884 C      0
   -2.4017    3.9577   -1.6857 C      0
   -2.0725    4.0118   -3.1564 C      0
    2.3984    5.8736   -3.0196 C      0
    1.9680    5.5242   -4.3100 C      0
    0.5369    5.2256   -4.6763 C      0
    2.9075    5.5132   -5.3370 C      0
    4.2324    5.8615   -5.1399 C      0
    5.2207    5.8477   -6.2804 C      0
    4.6143    6.2463   -3.8669 C      0
    3.7264    6.2637   -2.7958 C      0
    4.2538    6.6629   -1.4415 C      0
   -0.2384    3.4408    1.3999 H      0
   -2.0916    2.1235    2.1639 H      0
   -3.7000    0.2636    2.0244 H      0
   -3.6275   -1.2655    0.0868 H      0
   -1.9636   -0.9356   -1.6890 H      0
   -0.3500    1.8387   -2.5460 H      0
   -1.1618   -0.3500   -3.2565 H      0
    0.0070   -1.1790   -2.2337 H      0
    0.5341   -0.2663   -3.6509 H      0
    1.2225   -0.8528   -0.8168 H      0
    1.1273    0.3761    0.4434 H      0
    2.6505    0.0678   -0.3636 H      0
    2.2299   -0.1487   -2.8769 H      0
    3.1498    1.2544   -2.3952 H      0
    1.7804    1.4303   -3.5059 H      0
    0.6862    7.7747   -2.1540 H      0
    1.7497    7.5891   -0.7409 H      0
   -1.0616    7.3518   -0.7197 H      0
    0.0333    6.7764    0.5580 H      0
   -2.8527    5.5180    2.5531 H      0
   -2.0858    6.6572    1.4522 H      0
   -1.1319    5.3802    2.1987 H      0
   -3.9597    3.8816    1.8248 H      0
   -5.0028    1.1329   -0.1870 H      0
   -6.1083    2.4980   -0.3263 H      0
   -5.3987    2.0948    1.2353 H      0
   -3.9316    2.5575   -2.1879 H      0
   -1.8071    5.0229   -3.4568 H      0
   -2.9282    3.6991   -3.7511 H      0
   -1.2400    3.3532   -3.3943 H      0
    0.3391    5.4966   -5.7113 H      0
   -0.1481    5.7851   -4.0426 H      0
    0.3210    4.1661   -4.5561 H      0
    2.5862    5.2299   -6.3339 H      0
    4.7224    6.0547   -7.2251 H      0
    5.7058    4.8770   -6.3586 H      0
    5.9917    6.6008   -6.1317 H      0
    5.6449    6.5397   -3.6965 H      0
    5.2599    6.2770   -1.2913 H      0
    3.6209    6.2751   -0.6466 H      0
    4.2896    7.7462   -1.3467 H      0
    0.1756    4.4159   -2.6294 H      0
  1  2  1
  2  3  2
  3  4  1
  4  5  4
  5  6  4
  6  7  4
  7  8  4
  8  9  4
  4  9  4
  9 10  1
 10 11  1
 10 12  1
  2 12  1
 12 13  1
 12 14  1
  2 15  1
  2 16  1
 16 17  1
 17 18  1
 18 19  1
 19 20  1
 16 20  1
 20 21  1
 21 22  4
 22 23  1
 22 24  4
 24 25  4
 25 26  1
 25 27  4
 27 28  4
 21 28  4
 28 29  1
 17 30  1
 30 31  4
 31 32  1
 31 33  4
 33 34  4
 34 35  1
 34 36  4
 36 37  4
 30 37  4
 37 38  1
  3 39  1
  5 40  1
  6 41  1
  7 42  1
  8 43  1
 10 44  1
 11 45  1
 11 46  1
 11 47  1
 13 48  1
 13 49  1
 13 50  1
 14 51  1
 14 52  1
 14 53  1
 18 54  1
 18 55  1
 19 56  1
 19 57  1
 23 58  1
 23 59  1
 23 60  1
 24 61  1
 26 62  1
 26 63  1
 26 64  1
 27 65  1
 29 66  1
 29 67  1
 29 68  1
 32 69  1
 32 70  1
 32 71  1
 33 72  1
 35 73  1
 35 74  1
 35 75  1
 36 76  1
 38 77  1
 38 78  1
 38 79  1
 16 80  1
M  END
$$$$
