
 OpenBabel09252517503D

 32 35  0  0  0  0  0  0  0  0999 V2000
    1.0582   -0.0249    0.0229 O   0  0  0  0  0  0  0  0  0  0  0  0
    2.2816    0.0151    0.0863 C   0  0  0  0  0  0  0  0  0  0  0  0
    2.9246    1.1770    0.3771 N   0  0  0  0  0  0  0  0  0  0  0  0
    4.3004    1.3319    0.2429 C   0  0  0  0  0  0  0  0  0  0  0  0
    4.8344    2.6170    0.3924 C   0  0  0  0  0  0  0  0  0  0  0  0
    6.1736    2.8438    0.1026 C   0  0  0  0  0  0  0  0  0  0  0  0
    6.9473    1.8010   -0.3930 C   0  0  0  0  0  0  0  0  0  0  0  0
    6.3989    0.5181   -0.5345 C   0  0  0  0  0  0  0  0  0  0  0  0
    5.0867    0.2305   -0.1324 C   0  0  0  0  0  0  0  0  0  0  0  0
    4.4855   -1.1512   -0.1076 C   0  0  0  0  0  0  0  0  0  0  0  0
    3.1313   -1.2099   -0.0710 C   0  0  0  0  0  0  0  0  0  0  0  0
    2.2962   -2.4575   -0.1044 C   0  0  0  0  0  0  0  0  0  0  0  0
    3.0329   -3.7732   -0.2785 C   0  0  0  0  0  0  0  0  0  0  0  0
    4.5272   -3.6959   -0.1737 C   0  0  0  0  0  0  0  0  0  0  0  0
    5.2230   -4.9244   -0.1734 C   0  0  0  0  0  0  0  0  0  0  0  0
    6.6008   -4.9654   -0.0163 C   0  0  0  0  0  0  0  0  0  0  0  0
    7.2876   -3.7809    0.1875 C   0  0  0  0  0  0  0  0  0  0  0  0
    6.5967   -2.5617    0.2015 C   0  0  0  0  0  0  0  0  0  0  0  0
    5.2141   -2.4721   -0.0458 C   0  0  0  0  0  0  0  0  0  0  0  0
    2.3287    1.9799    0.5229 H   0  0  0  0  0  0  0  0  0  0  0  0
    4.2097    3.4462    0.7127 H   0  0  0  0  0  0  0  0  0  0  0  0
    6.5992    3.8367    0.2210 H   0  0  0  0  0  0  0  0  0  0  0  0
    7.9814    1.9821   -0.6773 H   0  0  0  0  0  0  0  0  0  0  0  0
    7.0269   -0.2399   -0.9917 H   0  0  0  0  0  0  0  0  0  0  0  0
    1.7070   -2.5092    0.8214 H   0  0  0  0  0  0  0  0  0  0  0  0
    1.5645   -2.3805   -0.9204 H   0  0  0  0  0  0  0  0  0  0  0  0
    2.6676   -4.4657    0.4932 H   0  0  0  0  0  0  0  0  0  0  0  0
    2.7683   -4.2169   -1.2460 H   0  0  0  0  0  0  0  0  0  0  0  0
    4.6763   -5.8595   -0.2835 H   0  0  0  0  0  0  0  0  0  0  0  0
    7.1269   -5.9157   -0.0211 H   0  0  0  0  0  0  0  0  0  0  0  0
    8.3622   -3.7969    0.3506 H   0  0  0  0  0  0  0  0  0  0  0  0
    7.1874   -1.6874    0.4479 H   0  0  0  0  0  0  0  0  0  0  0  0
  1  2  2  0  0  0  0
  2  3  1  0  0  0  0
  2 11  1  0  0  0  0
  3  4  1  0  0  0  0
  3 20  1  0  0  0  0
  4  5  1  0  0  0  0
  4  9  2  0  0  0  0
  5  6  2  0  0  0  0
  5 21  1  0  0  0  0
  6  7  1  0  0  0  0
  6 22  1  0  0  0  0
  7  8  2  0  0  0  0
  7 23  1  0  0  0  0
  8  9  1  0  0  0  0
  8 24  1  0  0  0  0
  9 10  1  0  0  0  0
 10 11  2  0  0  0  0
 10 19  1  0  0  0  0
 11 12  1  0  0  0  0
 12 13  1  0  0  0  0
 12 25  1  0  0  0  0
 12 26  1  0  0  0  0
 13 14  1  0  0  0  0
 13 27  1  0  0  0  0
 13 28  1  0  0  0  0
 14 15  1  0  0  0  0
 14 19  2  0  0  0  0
 15 16  2  0  0  0  0
 15 29  1  0  0  0  0
 16 17  1  0  0  0  0
 16 30  1  0  0  0  0
 17 18  2  0  0  0  0
 17 31  1  0  0  0  0
 18 19  1  0  0  0  0
 18 32  1  0  0  0  0
M  END
$$$$
