
  --CCDC--092525    3D                              

114121  0  0  0  0  0  0  0  0999 V2000
    2.2091   -2.5664   -0.5913 C      0
    3.1719   -1.5879   -0.8895 O      0
    4.4852   -2.0819   -1.0436 C      0
    5.2272   -1.1605   -1.9722 C      0
    5.3063    0.1127   -1.3650 O      0
    6.3171    0.1252   -0.3890 C      0
    2.9038    1.0552   -0.7423 Eu     0
    3.2859    0.2890    1.7752 N      0
    3.5360   -0.1022    3.0258 C      0
    3.8670   -0.6302    4.6191 S      0
    1.4291    2.9301    0.4417 N      0
    0.2561    2.5321    1.1794 C      0
   -0.7764    3.4079    1.4985 C      0
   -0.5703    3.9665    2.7629 C      0
    0.3268    3.3567    3.6332 C      0
    0.7153    2.0522    3.3592 C      0
    0.3068    1.5163    2.1435 C      0
   -0.3702    0.1500    2.1501 C      0
   -1.4294   -0.0080    3.2347 C      0
    0.6131   -1.0183    2.1952 C      0
   -2.0440    3.6262    0.6827 C      0
   -2.8846    4.8017    1.1791 C      0
   -2.9006    2.3600    0.6214 C      0
    1.9241    4.2932    0.2639 C      0
    3.2746    4.4605   -0.1096 C      0
    4.1505    3.3574   -0.3420 N      0
    5.5848    3.4501   -0.2987 C      0
    6.4390    3.3306   -1.4240 C      0
    7.7841    3.0518   -1.1976 C      0
    8.3087    2.9814    0.0744 C      0
    7.5058    3.2869    1.1518 C      0
    6.1500    3.5903    0.9969 C      0
    5.3708    4.0515    2.2303 C      0
    5.3470    2.9939    3.3300 C      0
    5.8901    5.3593    2.8288 C      0
    6.0739    3.5260   -2.8855 C      0
    6.8614    4.6774   -3.4950 C      0
    6.2195    2.2429   -3.6992 C      0
    3.6614    5.8675   -0.0943 C      0
    4.7907    6.6052   -0.3639 C      0
    4.7499    7.9903   -0.3016 C      0
    3.6117    8.6584    0.0462 C      0
    2.4375    7.9371    0.3682 C      0
    1.2145    8.5136    0.7639 C      0
    0.1536    7.6982    1.0107 C      0
    0.2216    6.3187    0.8634 C      0
    1.3947    5.6634    0.5268 C      0
    2.4865    6.5290    0.2800 C      0
    0.5368    0.4925   -1.8173 O      0
    0.2316   -0.8366   -2.1421 C      0
    0.2813    1.2914   -2.9537 C      0
    1.4572    1.1446   -3.8779 C      0
    2.5219    1.8207   -3.2578 O      0
    2.4072    3.1987   -3.5107 C      0
    1.9237   -3.0963   -1.4963 H      0
    1.3107   -2.1333   -0.1669 H      0
    2.6006   -3.2927    0.1153 H      0
    4.4584   -3.0969   -1.4587 H      0
    4.9908   -2.1495   -0.0727 H      0
    6.2318   -1.5497   -2.1792 H      0
    4.7041   -1.0981   -2.9335 H      0
    7.2775   -0.1275   -0.8287 H      0
    6.1026   -0.5968    0.3934 H      0
    6.4081    1.1008    0.0770 H      0
   -1.1039    4.8596    3.0703 H      0
    0.6408    3.8511    4.5454 H      0
    1.2305    1.4495    4.1011 H      0
   -0.9042    0.0610    1.1902 H      0
   -1.8351   -1.0179    3.2344 H      0
   -2.2534    0.6820    3.0685 H      0
   -1.0046    0.1912    4.2109 H      0
    1.1637   -1.0336    3.1295 H      0
    1.3276   -0.9542    1.3772 H      0
    0.0819   -1.9648    2.1021 H      0
   -1.7231    3.8600   -0.3451 H      0
   -2.5517    5.7318    0.7251 H      0
   -2.8204    4.9052    2.2580 H      0
   -3.9305    4.6533    0.9198 H      0
   -3.7129    2.4768   -0.0938 H      0
   -3.3363    2.1319    1.5909 H      0
   -2.3000    1.5061    0.3129 H      0
    8.4385    2.8861   -2.0476 H      0
    9.3470    2.7077    0.2260 H      0
    7.9601    3.2727    2.1365 H      0
    4.3332    4.2545    1.9389 H      0
    6.3312    2.8723    3.7789 H      0
    5.0277    2.0377    2.9249 H      0
    4.6492    3.2776    4.1158 H      0
    6.9165    5.2535    3.1730 H      0
    5.2805    5.6582    3.6789 H      0
    5.8578    6.1599    2.0932 H      0
    5.0109    3.8129   -2.9311 H      0
    7.9102    4.4161   -3.5383 H      0
    6.7668    5.5728   -2.8850 H      0
    6.5097    4.9064   -4.4978 H      0
    6.0588    2.4486   -4.7548 H      0
    5.4883    1.5005   -3.3850 H      0
    7.2092    1.8132   -3.5795 H      0
    5.7114    6.1016   -0.6400 H      0
    5.6442    8.5563   -0.5381 H      0
    3.6062    9.7431    0.0736 H      0
    1.1180    9.5897    0.8616 H      0
   -0.7856    8.1454    1.3204 H      0
   -0.6999    5.7763    0.9910 H      0
   -0.5529   -0.8901   -2.8935 H      0
   -0.1129   -1.3844   -1.2701 H      0
    1.1091   -1.3391   -2.5419 H      0
   -0.6397    0.9719   -3.4569 H      0
    0.1381    2.3425   -2.6736 H      0
    1.7064    0.0894   -4.0445 H      0
    1.2484    1.5913   -4.8579 H      0
    2.5266    3.7714   -2.5944 H      0
    1.4292    3.4341   -3.9237 H      0
    3.1597    3.5247   -4.2250 H      0
  1  2  1
  2  3  1
  3  4  1
  4  5  1
  5  6  1
  5  7  1
  2  7  1
  7  8  1
  8  9  4
  9 10  4
  7 11  1
 11 12  1
 12 13  4
 13 14  4
 14 15  4
 15 16  4
 16 17  4
 12 17  4
 17 18  1
 18 19  1
 18 20  1
 13 21  1
 21 22  1
 21 23  1
 11 24  1
 24 25  2
 25 26  1
  7 26  1
 26 27  1
 27 28  4
 28 29  4
 29 30  4
 30 31  4
 31 32  4
 27 32  4
 32 33  1
 33 34  1
 33 35  1
 28 36  1
 36 37  1
 36 38  1
 25 39  1
 39 40  4
 40 41  4
 41 42  4
 42 43  4
 43 44  4
 44 45  4
 45 46  4
 46 47  4
 24 47  1
 47 48  4
 39 48  4
 43 48  4
  7 49  1
 49 50  1
 49 51  1
 51 52  1
 52 53  1
  7 53  1
 53 54  1
  1 55  1
  1 56  1
  1 57  1
  3 58  1
  3 59  1
  4 60  1
  4 61  1
  6 62  1
  6 63  1
  6 64  1
 14 65  1
 15 66  1
 16 67  1
 18 68  1
 19 69  1
 19 70  1
 19 71  1
 20 72  1
 20 73  1
 20 74  1
 21 75  1
 22 76  1
 22 77  1
 22 78  1
 23 79  1
 23 80  1
 23 81  1
 29 82  1
 30 83  1
 31 84  1
 33 85  1
 34 86  1
 34 87  1
 34 88  1
 35 89  1
 35 90  1
 35 91  1
 36 92  1
 37 93  1
 37 94  1
 37 95  1
 38 96  1
 38 97  1
 38 98  1
 40 99  1
 41100  1
 42101  1
 44102  1
 45103  1
 46104  1
 50105  1
 50106  1
 50107  1
 51108  1
 51109  1
 52110  1
 52111  1
 54112  1
 54113  1
 54114  1
M  END
$$$$
