
     RDKit          3D

  0  0  0  0  0  0  0  0  0  0999 V3000
M  V30 BEGIN CTAB
M  V30 COUNTS 53 60 0 0 0
M  V30 BEGIN ATOM
M  V30 1 C 4.684599 1.933553 0.181243 0
M  V30 2 C 3.417604 1.348007 0.152141 0
M  V30 3 N 2.330584 0.827235 0.139958 0
M  V30 4 Fe 0.452168 -0.092111 0.151616 0 CHG=3 VAL=6
M  V30 5 N 1.441100 -1.634777 1.158465 0
M  V30 6 C 2.027946 -2.523520 1.725578 0
M  V30 7 C 2.682256 -3.558152 2.374102 0
M  V30 8 C 0.230826 0.606303 -1.840282 0 RAD=2 VAL=3
M  V30 9 N 0.570107 -0.180226 -2.949987 0
M  V30 10 C 1.221212 -1.454182 -2.672337 0
M  V30 11 N 0.093243 -2.181436 -2.053487 0
M  V30 12 C -0.539729 -3.418909 -2.011296 0
M  V30 13 C -1.643091 -3.248241 -1.301687 0
M  V30 14 N -1.777900 -1.873331 -0.845942 0
M  V30 15 C -2.927213 -1.223144 -0.201390 0
M  V30 16 N -2.342123 -0.773083 1.047261 0
M  V30 17 C -3.152523 -0.682389 2.254870 0
M  V30 18 C -2.533392 -0.029266 3.224410 0
M  V30 19 N -1.272458 0.347728 2.696463 0
M  V30 20 C -0.161132 1.242444 3.012270 0
M  V30 21 N -0.339811 2.256346 1.952802 0
M  V30 22 C -0.326655 3.629083 1.697630 0
M  V30 23 C -0.768918 3.771485 0.459389 0
M  V30 24 N -1.091077 2.489238 -0.146567 0
M  V30 25 C -1.781456 2.205846 -1.408297 0
M  V30 26 N -0.776734 1.444840 -2.128842 0
M  V30 27 C -0.670267 1.516750 -3.577348 0
M  V30 28 C 0.116290 0.570822 -4.065447 0
M  V30 29 C -0.636005 1.621592 0.688710 0 RAD=2 VAL=3
M  V30 30 C -1.147171 -0.390400 1.513201 0 RAD=2 VAL=3
M  V30 31 C -0.646866 -1.330219 -1.145617 0 RAD=2 VAL=3
M  V30 32 H 5.222485 1.582284 -0.739165 0
M  V30 33 H 5.330682 1.613452 1.034256 0
M  V30 34 H 4.631761 3.053271 0.241387 0
M  V30 35 H 3.768995 -3.642433 2.104473 0
M  V30 36 H 2.224903 -4.563761 2.264949 0
M  V30 37 H 2.650264 -3.317450 3.479810 0
M  V30 38 H 1.997898 -1.239670 -1.887448 0
M  V30 39 H 1.610718 -1.949608 -3.560296 0
M  V30 40 H -0.096589 -4.265088 -2.509173 0
M  V30 41 H -2.304438 -4.119713 -1.142700 0
M  V30 42 H -3.389023 -0.456288 -0.810174 0
M  V30 43 H -3.684332 -2.020105 -0.074869 0
M  V30 44 H -4.144126 -1.045790 2.488334 0
M  V30 45 H -2.821611 0.223923 4.234236 0
M  V30 46 H 0.763816 0.710483 2.799047 0
M  V30 47 H -0.233119 1.687175 4.011166 0
M  V30 48 H 0.006911 4.299968 2.467556 0
M  V30 49 H -0.843776 4.792824 0.039252 0
M  V30 50 H -1.985829 3.197612 -1.858679 0
M  V30 51 H -2.740637 1.717265 -1.292389 0
M  V30 52 H -1.114185 2.193056 -4.295329 0
M  V30 53 H 0.415818 0.330704 -5.075829 0
M  V30 END ATOM
M  V30 BEGIN BOND
M  V30 1 1 1 2
M  V30 2 3 2 3
M  V30 3 9 3 4
M  V30 4 9 5 4
M  V30 5 3 5 6
M  V30 6 1 6 7
M  V30 7 1 4 8
M  V30 8 1 8 9
M  V30 9 1 9 10
M  V30 10 1 10 11
M  V30 11 1 11 12
M  V30 12 2 12 13
M  V30 13 1 13 14
M  V30 14 1 14 15
M  V30 15 1 15 16
M  V30 16 1 16 17
M  V30 17 2 17 18
M  V30 18 1 18 19
M  V30 19 1 19 20
M  V30 20 1 20 21
M  V30 21 1 21 22
M  V30 22 2 22 23
M  V30 23 1 23 24
M  V30 24 1 24 25
M  V30 25 1 25 26
M  V30 26 1 26 27
M  V30 27 2 27 28
M  V30 28 1 24 29
M  V30 29 1 19 30
M  V30 30 1 14 31
M  V30 31 1 29 4
M  V30 32 1 30 4
M  V30 33 1 31 4
M  V30 34 1 26 8
M  V30 35 1 28 9
M  V30 36 1 31 11
M  V30 37 1 30 16
M  V30 38 1 29 21
M  V30 39 1 1 32
M  V30 40 1 1 33
M  V30 41 1 1 34
M  V30 42 1 7 35
M  V30 43 1 7 36
M  V30 44 1 7 37
M  V30 45 1 10 38
M  V30 46 1 10 39
M  V30 47 1 12 40
M  V30 48 1 13 41
M  V30 49 1 15 42
M  V30 50 1 15 43
M  V30 51 1 17 44
M  V30 52 1 18 45
M  V30 53 1 20 46
M  V30 54 1 20 47
M  V30 55 1 22 48
M  V30 56 1 23 49
M  V30 57 1 25 50
M  V30 58 1 25 51
M  V30 59 1 27 52
M  V30 60 1 28 53
M  V30 END BOND
M  V30 END CTAB
M  END
