
  --CCDC--092525    3D                              

 75 87  0  0  0  0  0  0  0  0999 V2000
    4.1922    3.1937    1.3227 Cl     0
    1.5446    2.8369    0.7371 Zr     0
    1.7328    5.5623    0.5534 Cl     0
   -0.3295    2.2286    2.0598 C      0
   -0.0079    3.8013    2.2688 C      0
    1.4565    3.7302    2.9231 C      0
    2.2179    4.7828    3.4059 C      0
    3.3803    4.4976    4.1220 C      0
    3.8490    3.2010    4.2585 C      0
    3.2017    2.1348    3.6328 C      0
    1.9842    2.3741    3.0172 C      0
    0.9470    1.3090    2.4597 C      0
    1.3233   -0.4553    1.9721 Si     0
    3.1724   -0.7906    2.0142 C      0
    0.4678   -1.6695    3.1238 C      0
    0.4245   -0.4602   -0.1872 Si     0
    1.0015   -1.9378   -1.1952 C      0
   -1.4551   -0.4396   -0.2271 C      0
    1.1697    1.1162   -0.8682 C      0
    2.7272    1.5310   -0.8512 C      0
    2.8714    3.1036   -1.2262 C      0
    1.3464    3.5321   -1.5144 C      0
    0.9056    4.7407   -2.0203 C      0
   -0.4113    4.8157   -2.4723 C      0
   -1.3125    3.7857   -2.2526 C      0
   -0.9374    2.6203   -1.5872 C      0
    0.4040    2.4531   -1.2986 C      0
    4.4431    4.1158   -1.4530 Si     0
    6.0089    3.0970   -1.2628 C      0
    4.6093    5.7430   -0.5319 C      0
    4.4607    4.6161   -3.2591 C      0
   -1.0954    5.3148    2.0301 Si     0
   -2.6965    5.0159    2.9572 C      0
   -1.5851    5.7485    0.2812 C      0
   -0.3457    6.8529    2.7957 C      0
   -1.0591    1.9038    1.3042 H      0
    1.9076    5.8106    3.2643 H      0
    3.9369    5.3119    4.5740 H      0
    4.7521    3.0166    4.8309 H      0
    3.6164    1.1337    3.6767 H      0
    3.5248   -0.8761    3.0399 H      0
    3.7252    0.0127    1.5331 H      0
    3.4069   -1.7197    1.4988 H      0
    0.6335   -2.6938    2.7964 H      0
   -0.6050   -1.4900    3.1456 H      0
    0.8484   -1.5723    4.1384 H      0
    0.6414   -1.8701   -2.2197 H      0
    0.6301   -2.8661   -0.7661 H      0
    2.0881   -1.9869   -1.2204 H      0
   -1.8549   -1.4135    0.0475 H      0
   -1.8148   -0.1970   -1.2248 H      0
   -1.8582    0.2960    0.4638 H      0
    3.4615    1.0086   -0.2200 H      0
    1.5802    5.5845   -2.1205 H      0
   -0.7471    5.7140   -2.9797 H      0
   -2.3384    3.8984   -2.5871 H      0
   -1.6651    1.8492   -1.3615 H      0
    6.3860    3.1056   -0.2439 H      0
    5.8267    2.0620   -1.5443 H      0
    6.7936    3.4851   -1.9088 H      0
    4.3598    5.6468    0.5213 H      0
    3.9563    6.4968   -0.9662 H      0
    5.6303    6.1126   -0.5994 H      0
    3.6008    5.2395   -3.4950 H      0
    4.4303    3.7392   -3.9025 H      0
    5.3618    5.1783   -3.4947 H      0
   -3.3526    5.8805    2.8824 H      0
   -2.5025    4.8278    4.0112 H      0
   -3.2227    4.1548    2.5505 H      0
   -2.2528    6.6076    0.2766 H      0
   -2.1092    4.9188   -0.1827 H      0
   -0.7084    6.0073   -0.3042 H      0
   -1.1103    7.6078    2.9668 H      0
    0.4143    7.2847    2.1489 H      0
    0.1177    6.6194    3.7520 H      0
  1  2  1
  2  3  1
  2  4  1
  4  5  1
  2  5  1
  5  6  1
  2  6  1
  6  7  4
  7  8  4
  8  9  4
  9 10  4
 10 11  4
  2 11  1
  6 11  4
 11 12  1
  2 12  1
  4 12  1
 12 13  1
 13 14  1
 13 15  1
 13 16  1
 16 17  1
 16 18  1
 16 19  1
  2 19  1
 19 20  1
  2 20  1
 20 21  1
  2 21  1
 21 22  1
  2 22  1
 22 23  4
 23 24  4
 24 25  4
 25 26  4
 26 27  4
  2 27  1
 19 27  1
 22 27  4
 21 28  1
 28 29  1
 28 30  1
 28 31  1
  5 32  1
 32 33  1
 32 34  1
 32 35  1
  4 36  1
  7 37  1
  8 38  1
  9 39  1
 10 40  1
 14 41  1
 14 42  1
 14 43  1
 15 44  1
 15 45  1
 15 46  1
 17 47  1
 17 48  1
 17 49  1
 18 50  1
 18 51  1
 18 52  1
 20 53  1
 23 54  1
 24 55  1
 25 56  1
 26 57  1
 29 58  1
 29 59  1
 29 60  1
 30 61  1
 30 62  1
 30 63  1
 31 64  1
 31 65  1
 31 66  1
 33 67  1
 33 68  1
 33 69  1
 34 70  1
 34 71  1
 34 72  1
 35 73  1
 35 74  1
 35 75  1
M  END
$$$$
