
  --CCDC--092525    3D                              

 73 77  0  0  0  0  0  0  0  0999 V2000
   -0.4846    0.6017   -0.3494 Cl     0
    1.0214    2.4270    0.0557 Ir     0
   -0.6132    3.7115   -0.2338 N      0
   -1.8051    3.1988    0.1348 C      0
   -2.0685    2.7526    1.4671 C      0
   -1.1988    3.1679    2.6146 C      0
    0.4908    2.5501    2.4724 P      0
    0.6199    0.9382    3.3081 C      0
    0.4237   -0.2787    2.4093 C      0
   -0.3950    0.7874    4.4456 C      0
    1.5220    3.6514    3.4844 C      0
    1.1520    5.1249    3.3246 C      0
    1.4122    3.3466    4.9772 C      0
   -3.1937    2.0140    1.7220 C      0
   -4.1370    1.7715    0.7391 C      0
   -3.9915    2.3100   -0.5034 C      0
   -2.8393    3.0671   -0.8229 C      0
   -2.6741    3.7069   -2.0415 C      0
   -1.5728    4.5210   -2.2658 C      0
   -1.4487    5.2990   -3.4409 C      0
   -0.3837    6.1285   -3.6075 C      0
    0.5754    6.2402   -2.6179 C      0
    0.5135    5.5078   -1.4612 C      0
    1.5652    5.7778   -0.4243 C      0
    2.5867    4.3081   -0.1926 P      0
    3.4014    4.0771   -1.7970 C      0
    4.4631    2.9781   -1.7763 C      0
    4.0012    5.3742   -2.3442 C      0
    3.7974    4.5097    1.1439 C      0
    4.4590    3.1833    1.5250 C      0
    4.8816    5.5319    0.8060 C      0
   -0.5522    4.5646   -1.2799 C      0
    2.2432    1.4533    0.5545 H      0
    1.3248    2.2916   -1.5503 H      0
   -1.6399    2.8669    3.5726 H      0
   -1.1683    4.2634    2.5998 H      0
    1.6366    0.8656    3.7243 H      0
    1.0824   -0.2356    1.5448 H      0
   -0.6065   -0.3412    2.0673 H      0
    0.6455   -1.1932    2.9553 H      0
   -1.4096    0.8197    4.0539 H      0
   -0.3052    1.5676    5.1949 H      0
   -0.2625   -0.1694    4.9462 H      0
    2.5728    3.4957    3.2059 H      0
    0.1281    5.3106    3.6406 H      0
    1.2560    5.4326    2.2923 H      0
    1.8067    5.7500    3.9281 H      0
    1.7313    2.3286    5.1905 H      0
    0.3856    3.4594    5.3194 H      0
    2.0378    4.0238    5.5548 H      0
   -3.3585    1.6265    2.7220 H      0
   -5.0099    1.1685    0.9664 H      0
   -4.7649    2.1625   -1.2499 H      0
   -3.4340    3.6062   -2.8093 H      0
   -2.2110    5.2388   -4.2106 H      0
   -0.2927    6.7146   -4.5161 H      0
    1.3990    6.9324   -2.7590 H      0
    2.1941    6.6199   -0.7384 H      0
    1.0653    6.0648    0.5044 H      0
    2.6171    3.7697   -2.5059 H      0
    4.7774    2.7313   -2.7882 H      0
    4.0774    2.0734   -1.3111 H      0
    5.3427    3.3017   -1.2251 H      0
    4.3331    5.2342   -3.3709 H      0
    4.8576    5.7030   -1.7636 H      0
    3.2611    6.1716   -2.3375 H      0
    3.2678    4.8877    2.0261 H      0
    5.0955    2.8071    0.7296 H      0
    3.7066    2.4278    1.7417 H      0
    5.0754    3.3071    2.4129 H      0
    5.5651    5.1358    0.0589 H      0
    4.4442    6.4512    0.4222 H      0
    5.4642    5.7776    1.6914 H      0
  1  2  1
  2  3  1
  3  4  4
  4  5  4
  5  6  1
  6  7  1
  2  7  1
  7  8  1
  8  9  1
  8 10  1
  7 11  1
 11 12  1
 11 13  1
  5 14  4
 14 15  4
 15 16  4
 16 17  4
  4 17  4
 17 18  4
 18 19  4
 19 20  4
 20 21  4
 21 22  4
 22 23  4
 23 24  1
 24 25  1
  2 25  1
 25 26  1
 26 27  1
 26 28  1
 25 29  1
 29 30  1
 29 31  1
 23 32  4
  3 32  4
 19 32  4
  2 33  1
  2 34  1
  6 35  1
  6 36  1
  8 37  1
  9 38  1
  9 39  1
  9 40  1
 10 41  1
 10 42  1
 10 43  1
 11 44  1
 12 45  1
 12 46  1
 12 47  1
 13 48  1
 13 49  1
 13 50  1
 14 51  1
 15 52  1
 16 53  1
 18 54  1
 20 55  1
 21 56  1
 22 57  1
 24 58  1
 24 59  1
 26 60  1
 27 61  1
 27 62  1
 27 63  1
 28 64  1
 28 65  1
 28 66  1
 29 67  1
 30 68  1
 30 69  1
 30 70  1
 31 71  1
 31 72  1
 31 73  1
M  END
$$$$
