
  --CCDC--092525    3D                              

 34 33  0  0  0  0  0  0  0  0999 V2000
    0.0000    0.0000   -0.0000 Br     0
    1.6400    2.8406    0.0000 La     0
    1.4299    5.9981   -0.8627 Br     0
   -1.3315    3.9653    0.8145 Br     0
    0.3865    2.5391   -2.4291 N      0
   -0.1342    2.4117   -3.4354 C      0
   -0.7803    2.2188   -4.7262 C      0
    3.5392    2.8693   -1.9887 N      0
    4.3277    2.8803   -2.8134 C      0
    5.3239    2.8611   -3.8754 C      0
    3.4177    0.7891    0.4404 N      0
    4.1553   -0.0620    0.6232 C      0
    5.0876   -1.1625    0.8246 C      0
    1.2920    2.5461    2.7120 N      0
    1.1476    2.4239    3.8372 C      0
    0.9591    2.3038    5.2762 C      0
    3.6072    4.2504    1.3058 N      0
    4.4232    4.8353    1.8482 C      0
    5.4781    5.5916    2.5085 C      0
   -0.8910    1.1593   -4.9475 H      0
   -0.1936    2.6719   -5.5227 H      0
   -1.7694    2.6719   -4.7340 H      0
    5.5786    1.8387   -4.1469 H      0
    6.2350    3.3646   -3.5588 H      0
    4.9498    3.3646   -4.7644 H      0
    5.4255   -1.5612   -0.1297 H      0
    5.9613   -0.8307    1.3817 H      0
    4.6169   -1.9698    1.3817 H      0
    0.9201    1.2581    5.5741 H      0
    0.0302    2.7789    5.5846 H      0
    1.7773    2.7789    5.8134 H      0
    6.1324    6.0607    1.7766 H      0
    6.0834    4.9415    3.1367 H      0
    5.0567    6.3736    3.1367 H      0
  1  2  1
  2  3  1
  2  4  1
  2  5  1
  5  6  3
  6  7  1
  2  8  1
  8  9  3
  9 10  1
  2 11  1
 11 12  3
 12 13  1
  2 14  1
 14 15  3
 15 16  1
  2 17  1
 17 18  3
 18 19  1
  7 20  1
  7 21  1
  7 22  1
 10 23  1
 10 24  1
 10 25  1
 13 26  1
 13 27  1
 13 28  1
 16 29  1
 16 30  1
 16 31  1
 19 32  1
 19 33  1
 19 34  1
M  END
$$$$
