
  --CCDC--092525    3D                              

 34 33  0  0  0  0  0  0  0  0999 V2000
    0.0000    0.0000    0.0000 H      0
    0.5440    0.9422    0.0000 C      0
    0.7406    1.2201   -1.0334 H      0
    1.4993    0.7821    0.4955 H      0
   -0.2211    1.9801    0.6770 C      0
   -0.8282    2.8036    1.1822 N      0
   -2.2913    4.7882    2.4000 La     0
   -2.1989    6.9970    4.8230 Br     0
   -4.6665    3.5736    4.3082 Br     0
    0.6801    6.1743    2.4867 Br     0
   -4.2350    6.6786    1.9403 N      0
   -5.0401    7.4636    1.7472 C      0
   -6.0761    8.4488    1.4699 C      0
   -6.2101    8.5762    0.3978 H      0
   -5.8136    9.4149    1.8959 H      0
   -7.0278    8.1379    1.8959 H      0
   -1.8312    5.9890   -0.0308 N      0
   -1.6422    6.4885   -1.0386 C      0
   -1.4335    7.1154   -2.3364 C      0
   -2.3851    7.3448   -2.8114 H      0
   -0.8749    6.4564   -2.9978 H      0
   -0.8749    8.0431   -2.2313 H      0
   -1.1539    3.2116    4.3450 N      0
   -0.6826    2.5575    5.1521 C      0
   -0.0998    1.6943    6.1699 C      0
   -0.8777    1.2023    6.7499 H      0
    0.5208    2.2693    6.8540 H      0
    0.5208    0.9254    5.7142 H      0
   -3.9836    3.2655    0.8572 N      0
   -4.6858    2.6338    0.2171 C      0
   -5.5740    1.7987   -0.5795 C      0
   -5.4038    1.9587   -1.6421 H      0
   -6.6155    2.0289   -0.3646 H      0
   -5.4085    0.7450   -0.3646 H      0
  1  2  1
  2  3  1
  2  4  1
  2  5  1
  5  6  3
  6  7  1
  7  8  1
  7  9  1
  7 10  1
  7 11  1
 11 12  3
 12 13  1
 13 14  1
 13 15  1
 13 16  1
  7 17  1
 17 18  3
 18 19  1
 19 20  1
 19 21  1
 19 22  1
  7 23  1
 23 24  3
 24 25  1
 25 26  1
 25 27  1
 25 28  1
  7 29  1
 29 30  3
 30 31  1
 31 32  1
 31 33  1
 31 34  1
M  END
$$$$
