
     RDKit          3D

 23 24  0  0  0  0  0  0  0  0999 V2000
    3.4870    0.5111    0.2304 C   0  0  0  0  0  0  0  0  0  0  0  0
    2.6482    0.4604    1.3454 C   0  0  0  0  0  0  0  0  0  0  0  0
    1.3749   -0.0972    1.2363 C   0  0  0  0  0  0  0  0  0  0  0  0
    0.9479   -0.5931    0.0012 C   0  0  0  0  0  0  0  0  0  0  0  0
   -0.6838   -1.3045   -0.1435 S   0  0  0  0  0  6  0  0  0  0  0  0
   -0.6105   -2.2567   -1.2402 O   0  0  0  0  0  0  0  0  0  0  0  0
   -1.0425   -1.7827    1.1819 O   0  0  0  0  0  0  0  0  0  0  0  0
   -1.7857    0.0323   -0.6426 C   0  0  2  0  0  0  0  0  0  0  0  0
   -1.8258    1.0238    0.4571 N   0  0  0  0  0  0  0  0  0  0  0  0
   -3.1868    1.0490    0.4814 C   0  0  0  0  0  0  0  0  0  0  0  0
   -3.9360    1.8661    0.9543 O   0  0  0  0  0  0  0  0  0  0  0  0
   -3.2806   -0.2153   -0.3857 C   0  0  0  0  0  0  0  0  0  0  0  0
    1.7879   -0.5609   -1.1153 C   0  0  0  0  0  0  0  0  0  0  0  0
    3.0600   -0.0016   -0.9962 C   0  0  0  0  0  0  0  0  0  0  0  0
    4.4826    0.9398    0.3212 H   0  0  0  0  0  0  0  0  0  0  0  0
    2.9926    0.8468    2.3020 H   0  0  0  0  0  0  0  0  0  0  0  0
    0.7313   -0.1472    2.1123 H   0  0  0  0  0  0  0  0  0  0  0  0
   -1.5199    0.4803   -1.6051 H   0  0  0  0  0  0  0  0  0  0  0  0
   -1.3612    1.9205    0.5164 H   0  0  0  0  0  0  0  0  0  0  0  0
   -3.9233   -0.1105   -1.2627 H   0  0  0  0  0  0  0  0  0  0  0  0
   -3.5524   -1.1118    0.1772 H   0  0  0  0  0  0  0  0  0  0  0  0
    1.4705   -0.9747   -2.0697 H   0  0  0  0  0  0  0  0  0  0  0  0
    3.7255    0.0259   -1.8561 H   0  0  0  0  0  0  0  0  0  0  0  0
  1  2  2  0
  2  3  1  0
  3  4  2  0
  4  5  1  0
  5  6  2  0
  5  7  2  0
  5  8  1  0
  8  9  1  0
  9 10  1  0
 10 11  2  0
 10 12  1  0
  4 13  1  0
 13 14  2  0
 14  1  1  0
 12  8  1  0
  1 15  1  0
  2 16  1  0
  3 17  1  0
  8 18  1  6
  9 19  1  0
 12 20  1  0
 12 21  1  0
 13 22  1  0
 14 23  1  0
M  END
