
     RDKit          3D

 42 41  0  0  0  0  0  0  0  0999 V2000
   -1.0415   -2.4525    0.2625 C   0  0  0  0  0  0  0  0  0  0  0  0
    0.0929   -0.8985   -0.1699 Pt  0  0  0  0  0  6  0  0  0  0  0  0
    1.6335   -2.0058   -0.4524 C   0  0  0  0  0  0  0  0  0  0  0  0
   -0.2498   -0.9061   -2.0626 C   0  0  0  0  0  0  0  0  0  0  0  0
    0.3501   -0.8885    1.4413 N   0  0  0  0  0  0  0  0  0  0  0  0
    0.5224   -1.2431    2.5378 N   0  0  0  0  0  4  0  0  0  0  0  0
    0.0823   -1.1597    3.6715 N   0  0  0  0  0  2  0  0  0  0  0  0
    1.3109    0.6352    0.2011 P   0  0  0  0  0  4  0  0  0  0  0  0
    1.8617    1.3423   -1.4132 C   0  0  0  0  0  0  0  0  0  0  0  0
    0.9825    2.1039    1.1626 C   0  0  0  0  0  0  0  0  0  0  0  0
    3.0763    0.2914    0.8106 C   0  0  0  0  0  0  0  0  0  0  0  0
   -1.3778    0.3632    0.0450 P   0  0  0  0  0  4  0  0  0  0  0  0
   -1.8828    0.9863    1.6587 C   0  0  0  0  0  0  0  0  0  0  0  0
   -3.0638   -0.2657   -0.5260 C   0  0  0  0  0  0  0  0  0  0  0  0
   -1.4925    1.8475   -1.0573 C   0  0  0  0  0  0  0  0  0  0  0  0
   -0.5705   -3.3793    0.6180 H   0  0  0  0  0  0  0  0  0  0  0  0
   -1.9156   -2.3596    0.8999 H   0  0  0  0  0  0  0  0  0  0  0  0
   -1.5007   -2.8225   -0.6416 H   0  0  0  0  0  0  0  0  0  0  0  0
    2.4171   -1.6637   -1.1551 H   0  0  0  0  0  0  0  0  0  0  0  0
    2.1679   -2.4191    0.3667 H   0  0  0  0  0  0  0  0  0  0  0  0
    1.4076   -2.9871   -0.9800 H   0  0  0  0  0  0  0  0  0  0  0  0
    0.2977   -0.1870   -2.6548 H   0  0  0  0  0  0  0  0  0  0  0  0
   -1.2822   -0.8966   -2.4528 H   0  0  0  0  0  0  0  0  0  0  0  0
   -0.0282   -1.8742   -2.6294 H   0  0  0  0  0  0  0  0  0  0  0  0
    2.4805    0.5466   -1.9235 H   0  0  0  0  0  0  0  0  0  0  0  0
    2.4247    2.2430   -1.2207 H   0  0  0  0  0  0  0  0  0  0  0  0
    1.0704    1.5613   -2.1045 H   0  0  0  0  0  0  0  0  0  0  0  0
    1.1567    1.8651    2.2714 H   0  0  0  0  0  0  0  0  0  0  0  0
    1.7360    2.8151    0.8803 H   0  0  0  0  0  0  0  0  0  0  0  0
    0.0236    2.5705    1.1314 H   0  0  0  0  0  0  0  0  0  0  0  0
    3.6377    1.1848    0.7573 H   0  0  0  0  0  0  0  0  0  0  0  0
    3.4512   -0.6196    0.3522 H   0  0  0  0  0  0  0  0  0  0  0  0
    2.8776    0.0516    1.8791 H   0  0  0  0  0  0  0  0  0  0  0  0
   -2.2257    2.0133    1.6515 H   0  0  0  0  0  0  0  0  0  0  0  0
   -1.0581    0.9658    2.4138 H   0  0  0  0  0  0  0  0  0  0  0  0
   -2.6837    0.3995    2.1657 H   0  0  0  0  0  0  0  0  0  0  0  0
   -3.8030    0.4741   -0.3025 H   0  0  0  0  0  0  0  0  0  0  0  0
   -3.2863   -1.2055    0.0019 H   0  0  0  0  0  0  0  0  0  0  0  0
   -3.0542   -0.4652   -1.5902 H   0  0  0  0  0  0  0  0  0  0  0  0
   -0.6298    2.5045   -0.9862 H   0  0  0  0  0  0  0  0  0  0  0  0
   -2.3572    2.4030   -0.7322 H   0  0  0  0  0  0  0  0  0  0  0  0
   -1.5577    1.5317   -2.1255 H   0  0  0  0  0  0  0  0  0  0  0  0
  1  2  1  0
  2  3  1  0
  2  4  1  0
  2  5  1  0
  5  6  2  0
  6  7  2  0
  2  8  1  0
  8  9  1  0
  8 10  1  0
  8 11  1  0
  2 12  1  0
 12 13  1  0
 12 14  1  0
 12 15  1  0
  1 16  1  0
  1 17  1  0
  1 18  1  0
  3 19  1  0
  3 20  1  0
  3 21  1  0
  4 22  1  0
  4 23  1  0
  4 24  1  0
  9 25  1  0
  9 26  1  0
  9 27  1  0
 10 28  1  0
 10 29  1  0
 10 30  1  0
 11 31  1  0
 11 32  1  0
 11 33  1  0
 13 34  1  0
 13 35  1  0
 13 36  1  0
 14 37  1  0
 14 38  1  0
 14 39  1  0
 15 40  1  0
 15 41  1  0
 15 42  1  0
M  CHG  2   6   1   7  -1
M  RAD  2   8   2  12   2
M  END
