
 OpenBabel09252513163D

 28 28  0  0  0  0  0  0  0  0999 V2000
    1.2097   -0.2265    0.4178 H   0  0  0  0  0  0  0  0  0  0  0  0
    2.2176    0.0887    0.1445 C   0  0  0  0  0  0  0  0  0  0  0  0
    2.8063    1.2281    0.8969 C   0  0  0  0  0  0  0  0  0  0  0  0
    2.3082    1.5542    2.1225 C   0  0  0  0  0  0  0  0  0  0  0  0
    1.2353    0.8202    2.7211 C   0  0  0  0  0  0  0  0  0  0  0  0
    0.3630    0.2181    3.1938 N   0  0  0  0  0  0  0  0  0  0  0  0
    2.8235    2.6007    2.9382 C   0  0  0  0  0  0  0  0  0  0  0  0
    3.2330    3.4420    3.6267 N   0  0  0  0  0  0  0  0  0  0  0  0
    3.9713    1.9092    0.1609 C   0  0  0  0  0  0  0  0  0  0  0  0
    4.7259    1.1477   -0.0684 H   0  0  0  0  0  0  0  0  0  0  0  0
    3.5839    2.2767   -0.7997 H   0  0  0  0  0  0  0  0  0  0  0  0
    4.7710    3.0471    0.7810 C   0  0  0  0  0  0  0  0  0  0  0  0
    4.1509    3.9267    0.9712 H   0  0  0  0  0  0  0  0  0  0  0  0
    5.2665    2.7272    1.7028 H   0  0  0  0  0  0  0  0  0  0  0  0
    5.5619    3.3551    0.0872 H   0  0  0  0  0  0  0  0  0  0  0  0
    2.8516   -0.6378   -0.7899 C   0  0  0  0  0  0  0  0  0  0  0  0
    3.8644   -0.3979   -1.1001 H   0  0  0  0  0  0  0  0  0  0  0  0
    2.3660   -1.8817   -1.3850 C   0  0  0  0  0  3  0  0  0  0  0  0
    3.1061   -2.4367   -2.5424 C   0  0  0  0  0  3  0  0  0  0  0  0
    3.3507   -1.7921   -3.3781 H   0  0  0  0  0  0  0  0  0  0  0  0
    3.7034   -3.7618   -2.4427 C   0  0  0  0  0  3  0  0  0  0  0  0
    4.5764   -4.0140   -3.0296 H   0  0  0  0  0  0  0  0  0  0  0  0
    3.2640   -4.6545   -1.3886 C   0  0  0  0  0  3  0  0  0  0  0  0
    3.9036   -5.8234   -1.2045 F   0  0  0  0  0  0  0  0  0  0  0  0
    2.2691   -4.2270   -0.4257 C   0  0  0  0  0  3  0  0  0  0  0  0
    2.0202   -4.8601    0.4149 H   0  0  0  0  0  0  0  0  0  0  0  0
    1.6791   -2.8997   -0.5571 C   0  0  0  0  0  3  0  0  0  0  0  0
    0.6317   -2.7628   -0.3118 H   0  0  0  0  0  0  0  0  0  0  0  0
  1  2  1  0  0  0  0
  2  3  1  0  0  0  0
  2 16  2  0  0  0  0
  3  4  2  0  0  0  0
  3  9  1  0  0  0  0
  4  5  1  0  0  0  0
  4  7  1  0  0  0  0
  5  6  3  0  0  0  0
  7  8  3  0  0  0  0
  9 10  1  0  0  0  0
  9 11  1  0  0  0  0
  9 12  1  0  0  0  0
 12 13  1  0  0  0  0
 12 14  1  0  0  0  0
 12 15  1  0  0  0  0
 16 17  1  0  0  0  0
 16 18  1  0  0  0  0
 18 19  1  0  0  0  0
 18 27  1  0  0  0  0
 19 20  1  0  0  0  0
 19 21  1  0  0  0  0
 21 22  1  0  0  0  0
 21 23  1  0  0  0  0
 23 24  1  0  0  0  0
 23 25  1  0  0  0  0
 25 26  1  0  0  0  0
 25 27  1  0  0  0  0
 27 28  1  0  0  0  0
M  END
$$$$
