
 OpenBabel09252516223D

 68 74  0  0  1  0  0  0  0  0999 V2000
    1.0613   -0.0637    0.0467 H   0  0  0  0  0  0  0  0  0  0  0  0
    2.1313   -0.0637    0.0467 C   0  0  0  0  0  0  0  0  0  0  0  0
    2.4880    0.9342    0.1949 H   0  0  0  0  0  0  0  0  0  0  0  0
    2.4880   -0.6910    0.8368 H   0  0  0  0  0  0  0  0  0  0  0  0
    2.7347   -0.6906   -1.5405 S   0  0  0  0  0  0  0  0  0  0  0  0
    2.2245    0.2066   -2.6705 O   0  0  0  0  0  0  0  0  0  0  0  0
   -0.3514    0.5043   -3.0455 U   0  3  0  0  0  0  0  0  0  0  0  0
   -0.0035    2.5367   -1.4291 O   0  0  0  0  0  0  0  0  0  0  0  0
    1.3990    3.1088   -1.2099 S   0  0  0  0  0  0  0  0  0  0  0  0
    2.0685    3.6865   -2.7892 C   0  0  0  0  0  0  0  0  0  0  0  0
    1.4316    4.4473   -3.1897 H   0  0  0  0  0  0  0  0  0  0  0  0
    3.0491    4.0865   -2.6360 H   0  0  0  0  0  0  0  0  0  0  0  0
    2.1208    2.8673   -3.4755 H   0  0  0  0  0  0  0  0  0  0  0  0
    1.3107    4.4946   -0.0490 C   0  0  0  0  0  0  0  0  0  0  0  0
    0.6737    5.2554   -0.4495 H   0  0  0  0  0  0  0  0  0  0  0  0
    0.9149    4.1531    0.8846 H   0  0  0  0  0  0  0  0  0  0  0  0
    2.2912    4.8946    0.1043 H   0  0  0  0  0  0  0  0  0  0  0  0
   -2.0145    1.9071   -1.5858 O   0  0  0  0  0  0  0  0  0  0  0  0
   -3.3905    1.9623   -1.9322 C   0  0  0  0  0  0  0  0  0  0  0  0
   -4.1972    2.6427   -1.2241 O   0  0  0  0  0  0  0  0  0  0  0  0
   -3.4632    4.0246    0.2786 C   0  0  0  0  0  0  0  0  0  0  0  0
   -3.3380    3.4253    1.1561 H   0  0  0  0  0  0  0  0  0  0  0  0
   -3.4718    5.0592    0.5515 H   0  0  0  0  0  0  0  0  0  0  0  0
   -2.3519    3.7720   -0.6500 N   0  0  1  0  0  4  0  0  0  0  0  0
   -2.0360    5.2575   -0.8336 C   0  0  0  0  0  0  0  0  0  0  0  0
   -2.8067    5.8422   -0.3765 H   0  0  0  0  0  0  0  0  0  0  0  0
   -1.9843    5.4834   -1.8782 H   0  0  0  0  0  0  0  0  0  0  0  0
   -0.6951    5.5860   -0.1760 C   0  0  0  0  0  0  0  0  0  0  0  0
   -0.4850    4.8612    0.5825 H   0  0  0  0  0  0  0  0  0  0  0  0
   -0.7431    6.5608    0.2625 H   0  0  0  0  0  0  0  0  0  0  0  0
    0.4153    5.5556   -1.2280 N   0  0  1  0  0  4  0  0  0  0  0  0
   -0.3990   -3.1010   -2.7500 C   0  0  0  0  0  0  0  0  0  0  0  0
   -1.3048   -3.6704   -2.7605 H   0  0  0  0  0  0  0  0  0  0  0  0
   -0.4949   -2.2660   -3.4122 H   0  0  0  0  0  0  0  0  0  0  0  0
   -0.1310   -2.6010   -1.3398 C   0  0  0  0  0  0  0  0  0  0  0  0
    0.0170   -3.4310   -0.3888 O   0  0  0  0  0  0  0  0  0  0  0  0
   -0.0462   -1.2067   -1.0849 O   0  0  0  0  0  0  0  0  0  0  0  0
    1.6668    4.9095   -0.6328 C   0  0  0  0  0  0  0  0  0  0  0  0
    2.2431    5.6541   -0.1245 H   0  0  0  0  0  0  0  0  0  0  0  0
    1.3785    4.1454    0.0585 H   0  0  0  0  0  0  0  0  0  0  0  0
    2.5085    4.2925   -1.7512 C   0  0  0  0  0  0  0  0  0  0  0  0
    3.4511    4.7959   -1.8053 H   0  0  0  0  0  0  0  0  0  0  0  0
    1.9930    4.3959   -2.6831 H   0  0  0  0  0  0  0  0  0  0  0  0
    2.7410    2.8095   -1.4601 N   0  0  2  0  0  4  0  0  0  0  0  0
    3.6092    2.8772   -0.9291 H   0  0  0  0  0  0  0  0  0  0  0  0
    1.6293    1.9778   -2.1033 C   0  0  0  0  0  0  0  0  0  0  0  0
    2.0524    1.3264   -2.8392 H   0  0  0  0  0  0  0  0  0  0  0  0
    0.9201    2.6300   -2.5686 H   0  0  0  0  0  0  0  0  0  0  0  0
    0.9268    1.1440   -1.0287 C   0  0  0  0  0  0  0  0  0  0  0  0
    0.7258    1.7617   -0.1784 H   0  0  0  0  0  0  0  0  0  0  0  0
    1.5585    0.3293   -0.7421 H   0  0  0  0  0  0  0  0  0  0  0  0
   -0.3915    0.5955   -1.5762 N   0  0  1  0  0  4  0  0  0  0  0  0
   -0.5812   -0.8455   -1.1384 C   0  0  0  0  0  0  0  0  0  0  0  0
    0.1912   -1.1591   -0.4676 H   0  0  0  0  0  0  0  0  0  0  0  0
   -1.5113   -0.9589   -0.6217 H   0  0  0  0  0  0  0  0  0  0  0  0
   -0.5815   -1.5742   -2.2711 C   0  0  0  0  0  0  0  0  0  0  0  0
   -0.6911   -2.8399   -2.3058 O   0  0  0  0  0  0  0  0  0  0  0  0
   -0.4523   -0.8010   -3.3550 O   0  0  0  0  0  0  0  0  0  0  0  0
   -1.5769    1.4447   -1.1156 C   0  0  0  0  0  0  0  0  0  0  0  0
   -1.7285    1.2918   -0.0675 H   0  0  0  0  0  0  0  0  0  0  0  0
   -2.4518    1.1538   -1.6586 H   0  0  0  0  0  0  0  0  0  0  0  0
   -1.2965    2.9267   -1.3670 C   0  0  0  0  0  0  0  0  0  0  0  0
   -1.3336    3.1245   -2.4179 H   0  0  0  0  0  0  0  0  0  0  0  0
   -0.3254    3.1750   -0.9925 H   0  0  0  0  0  0  0  0  0  0  0  0
    4.5447   -0.6906   -1.5405 C   0  0  0  0  0  0  0  0  0  0  0  0
    4.9013    0.3073   -1.3923 H   0  0  0  0  0  0  0  0  0  0  0  0
    4.9013   -1.3178   -0.7504 H   0  0  0  0  0  0  0  0  0  0  0  0
    4.9013   -1.0612   -2.4788 H   0  0  0  0  0  0  0  0  0  0  0  0
  1  2  1  0  0  0  0
  2  3  1  0  0  0  0
  2  4  1  0  0  0  0
  2  5  1  0  0  0  0
  5  6  2  0  0  0  0
  5 65  1  0  0  0  0
  6  7  1  0  0  0  0
  7  8  1  0  0  0  0
  7 18  1  0  0  0  0
  7 24  1  0  0  0  0
  7 31  1  0  0  0  0
  7 37  1  0  0  0  0
  7 44  1  0  0  0  0
  7 52  1  0  0  0  0
  7 58  1  0  0  0  0
  8  9  2  0  0  0  0
  9 10  1  0  0  0  0
  9 14  1  0  0  0  0
 10 11  1  0  0  0  0
 10 12  1  0  0  0  0
 10 13  1  0  0  0  0
 14 15  1  0  0  0  0
 14 16  1  0  0  0  0
 14 17  1  0  0  0  0
 18 19  1  0  0  0  0
 19 20  2  0  0  0  0
 19 21  1  0  0  0  0
 21 22  1  0  0  0  0
 21 23  1  0  0  0  0
 24 21  1  6  0  0  0
 24 25  1  0  0  0  0
 24 62  1  0  0  0  0
 25 26  1  0  0  0  0
 25 27  1  0  0  0  0
 25 28  1  0  0  0  0
 28 29  1  0  0  0  0
 28 30  1  0  0  0  0
 31 28  1  1  0  0  0
 31 32  1  0  0  0  0
 31 38  1  0  0  0  0
 32 33  1  0  0  0  0
 32 34  1  0  0  0  0
 32 35  1  0  0  0  0
 35 36  2  0  0  0  0
 35 37  1  0  0  0  0
 38 39  1  0  0  0  0
 38 40  1  0  0  0  0
 38 41  1  0  0  0  0
 41 42  1  0  0  0  0
 41 43  1  0  0  0  0
 41 44  1  0  0  0  0
 44 45  1  1  0  0  0
 44 46  1  0  0  0  0
 46 47  1  0  0  0  0
 46 48  1  0  0  0  0
 46 49  1  0  0  0  0
 49 50  1  0  0  0  0
 49 51  1  0  0  0  0
 52 49  1  6  0  0  0
 52 53  1  0  0  0  0
 52 59  1  0  0  0  0
 53 54  1  0  0  0  0
 53 55  1  0  0  0  0
 53 56  1  0  0  0  0
 56 57  2  0  0  0  0
 56 58  1  0  0  0  0
 59 60  1  0  0  0  0
 59 61  1  0  0  0  0
 59 62  1  0  0  0  0
 62 63  1  0  0  0  0
 62 64  1  0  0  0  0
 65 66  1  0  0  0  0
 65 67  1  0  0  0  0
 65 68  1  0  0  0  0
M  CHG  1   7   1
M  END
$$$$
