
  --CCDC--092525    3D                              

 53 52  0  0  0  0  0  0  0  0999 V2000
   -0.0060    0.0054    0.0016 C      0
    1.9728   -0.0535   -0.6881 Rh     0
    2.7698   -1.5984    1.5338 I      0
    1.5184   -2.5152   -1.9879 I      0
    3.9575   -0.1127   -1.3800 C      0
    5.0415   -0.1431   -1.7308 O      0
    1.2527    1.1975   -2.7194 P      0
   -0.4488    0.7676   -3.1513 C      0
   -0.9229    1.4940   -4.4034 C      0
    2.3275    0.8042   -4.1302 C      0
    2.1425   -0.6048   -4.6748 C      0
    1.2585    3.0098   -2.5857 C      0
   -0.0564    3.6146   -2.1268 C      0
    2.4375    2.1027    0.4762 P      0
    0.9217    3.0933    0.7011 C      0
    0.4692    3.3323    2.1327 C      0
    3.0293    1.7663    2.1540 C      0
    2.0534    1.0828    3.1108 C      0
    3.7225    3.1660   -0.2668 C      0
    4.3862    2.8142   -1.6023 C      0
   -0.5463    0.8377   -0.4234 H      0
   -0.0092    0.0668    1.0893 H      0
   -0.5009   -0.9229   -0.2949 H      0
   -0.5256   -0.3144   -3.3083 H      0
   -1.1051    1.0282   -2.3117 H      0
   -2.0068    1.4860   -4.4687 H      0
   -0.5201    1.0244   -5.2963 H      0
   -0.6059    2.5312   -4.4143 H      0
    3.3789    0.9539   -3.8574 H      0
    2.0963    1.5065   -4.9393 H      0
    1.1664   -1.0012   -4.4005 H      0
    2.9103   -1.2730   -4.2927 H      0
    2.2171   -0.6152   -5.7622 H      0
    1.5345    3.4671   -3.5465 H      0
    2.0010    3.3232   -1.8687 H      0
   -0.6361    3.9936   -2.9656 H      0
    0.1261    4.4490   -1.4548 H      0
   -0.6487    2.8762   -1.5984 H      0
    0.0834    2.6032    0.2101 H      0
    1.0645    4.0717    0.2340 H      0
   -0.0352    2.4490    2.5193 H      0
    1.3187    3.5608    2.7725 H      0
   -0.2449    4.1552    2.2032 H      0
    3.3314    2.7196    2.6103 H      0
    3.9328    1.1476    2.0714 H      0
    2.5407    0.2898    3.6715 H      0
    1.2158    0.6524    2.5678 H      0
    1.6508    1.7896    3.8335 H      0
    4.5304    3.3154    0.4674 H      0
    3.2652    4.1543   -0.4092 H      0
    3.7146    2.2754   -2.2627 H      0
    5.2758    2.2108   -1.4433 H      0
    4.7012    3.7140   -2.1352 H      0
  1  2  1
  2  3  1
  2  4  1
  2  5  1
  5  6  3
  2  7  1
  7  8  1
  8  9  1
  7 10  1
 10 11  1
  7 12  1
 12 13  1
  2 14  1
 14 15  1
 15 16  1
 14 17  1
 17 18  1
 14 19  1
 19 20  1
  1 21  1
  1 22  1
  1 23  1
  8 24  1
  8 25  1
  9 26  1
  9 27  1
  9 28  1
 10 29  1
 10 30  1
 11 31  1
 11 32  1
 11 33  1
 12 34  1
 12 35  1
 13 36  1
 13 37  1
 13 38  1
 15 39  1
 15 40  1
 16 41  1
 16 42  1
 16 43  1
 17 44  1
 17 45  1
 18 46  1
 18 47  1
 18 48  1
 19 49  1
 19 50  1
 20 51  1
 20 52  1
 20 53  1
M  END
$$$$
