
 OpenBabel09252513243D

 73 77  0  0  0  0  0  0  0  0999 V2000
    1.0597   -0.0598    0.0535 Cl  0  0  0  0  0  0  0  0  0  0  0  0
    3.4897   -0.0598    0.0535 Ir  0  0  0  0  0  0  0  0  0  0  0  0
    3.4897    1.3899    0.2445 N   0  0  0  0  0  0  0  0  0  0  0  0
    2.8909    1.9695    1.3430 C   0  0  0  0  0  0  0  0  0  0  0  0
    2.2744    1.1937    2.3197 C   0  0  0  0  0  0  0  0  0  0  0  0
    2.2537   -0.3088    2.1992 C   0  0  0  0  0  0  0  0  0  0  0  0
    3.4897   -0.7606    1.4141 P   0  0  0  0  0  4  0  0  0  0  0  0
    3.4514   -2.5753    1.1810 C   0  0  0  0  0  0  0  0  0  0  0  0
    4.6787   -3.0114    0.3974 C   0  0  0  0  0  0  0  0  0  0  0  0
    3.4468   -3.2604    2.5378 C   0  0  0  0  0  0  0  0  0  0  0  0
    5.0042   -0.3117    2.3380 C   0  0  0  0  0  0  0  0  0  0  0  0
    5.0523    1.1953    2.5306 C   0  0  0  0  0  0  0  0  0  0  0  0
    4.9912   -0.9958    3.6953 C   0  0  0  0  0  0  0  0  0  0  0  0
    1.6786    1.7962    3.4072 C   0  0  0  0  0  0  0  0  0  0  0  0
    1.6873    3.1777    3.5421 C   0  0  0  0  0  0  0  0  0  0  0  0
    2.2888    3.9607    2.6006 C   0  0  0  0  0  0  0  0  0  0  0  0
    2.9036    3.3721    1.4848 C   0  0  0  0  0  0  0  0  0  0  0  0
    3.4980    4.1512    0.5613 C   0  0  0  0  0  0  0  0  0  0  0  0
    4.0763    3.6348   -0.4847 C   0  0  0  0  0  0  0  0  0  0  0  0
    4.7406    4.5395   -1.5097 C   0  0  0  0  0  0  0  0  0  0  0  0
    4.7308    5.8885   -1.3342 C   0  0  0  0  0  0  0  0  0  0  0  0
    3.2762    0.6224   -2.4466 C   0  0  0  0  0  0  0  0  0  0  0  0
    3.4102    1.9025   -2.0063 C   0  0  0  0  0  0  0  0  0  0  0  0
    6.5797   -1.1103    1.4222 C   0  0  0  0  0  0  0  0  0  0  0  0
    5.9697   -0.0598    0.0535 P   0  0  0  0  0  4  0  0  0  0  0  0
    6.5797   -0.7199   -1.5406 C   0  0  0  0  0  0  0  0  0  0  0  0
    6.0730    0.1526   -2.6774 C   0  0  0  0  0  0  0  0  0  0  0  0
    8.0997   -0.7199   -1.5406 C   0  0  0  0  0  0  0  0  0  0  0  0
    6.5797    1.6508    0.2788 C   0  0  0  0  0  0  0  0  0  0  0  0
    6.0730    2.5233   -0.8580 C   0  0  0  0  0  0  0  0  0  0  0  0
    6.0730    2.1990    1.6029 C   0  0  0  0  0  0  0  0  0  0  0  0
    4.0869    2.1811   -0.6740 C   0  0  0  0  0  3  0  0  0  0  0  0
    3.4897   -1.7651   -0.1712 H   0  0  0  0  0  0  0  0  0  0  0  0
    3.4897    0.7277   -1.4756 H   0  0  0  0  0  0  0  0  0  0  0  0
    1.3663   -0.6194    1.6886 H   0  0  0  0  0  0  0  0  0  0  0  0
    2.2678   -0.7476    3.1750 H   0  0  0  0  0  0  0  0  0  0  0  0
    2.5685   -2.8470    0.6412 H   0  0  0  0  0  0  0  0  0  0  0  0
    5.5617   -2.7397    0.9372 H   0  0  0  0  0  0  0  0  0  0  0  0
    4.6563   -4.0725    0.2611 H   0  0  0  0  0  0  0  0  0  0  0  0
    4.6820   -2.5291   -0.5577 H   0  0  0  0  0  0  0  0  0  0  0  0
    2.5828   -2.9534    3.0894 H   0  0  0  0  0  0  0  0  0  0  0  0
    3.4244   -4.3215    2.4015 H   0  0  0  0  0  0  0  0  0  0  0  0
    4.3297   -2.9887    3.0776 H   0  0  0  0  0  0  0  0  0  0  0  0
    5.8651   -0.6285    1.7872 H   0  0  0  0  0  0  0  0  0  0  0  0
    4.1914    1.5121    3.0815 H   0  0  0  0  0  0  0  0  0  0  0  0
    5.9378    1.4577    3.0708 H   0  0  0  0  0  0  0  0  0  0  0  0
    5.0615    1.6768    1.5752 H   0  0  0  0  0  0  0  0  0  0  0  0
    4.9573   -2.0566    3.5598 H   0  0  0  0  0  0  0  0  0  0  0  0
    5.8767   -0.7333    4.2356 H   0  0  0  0  0  0  0  0  0  0  0  0
    4.1303   -0.6790    4.2462 H   0  0  0  0  0  0  0  0  0  0  0  0
    1.2053    1.1935    4.1539 H   0  0  0  0  0  0  0  0  0  0  0  0
    1.2190    3.6316    4.3904 H   0  0  0  0  0  0  0  0  0  0  0  0
    2.2917    5.0248    2.7130 H   0  0  0  0  0  0  0  0  0  0  0  0
    3.4949    5.2135    0.6893 H   0  0  0  0  0  0  0  0  0  0  0  0
    5.2159    4.1153   -2.3694 H   0  0  0  0  0  0  0  0  0  0  0  0
    4.2555    6.3127   -0.4745 H   0  0  0  0  0  0  0  0  0  0  0  0
    2.7998    0.4263   -3.3845 H   0  0  0  0  0  0  0  0  0  0  0  0
    7.6497   -1.1103    1.4222 H   0  0  0  0  0  0  0  0  0  0  0  0
    6.2230   -0.7243    2.3542 H   0  0  0  0  0  0  0  0  0  0  0  0
    6.2230   -1.7201   -1.6724 H   0  0  0  0  0  0  0  0  0  0  0  0
    6.4297    1.1528   -2.5457 H   0  0  0  0  0  0  0  0  0  0  0  0
    6.4297   -0.2334   -3.6095 H   0  0  0  0  0  0  0  0  0  0  0  0
    5.0030    0.1526   -2.6774 H   0  0  0  0  0  0  0  0  0  0  0  0
    8.4564   -1.3341   -0.7403 H   0  0  0  0  0  0  0  0  0  0  0  0
    8.4564   -1.1059   -2.4727 H   0  0  0  0  0  0  0  0  0  0  0  0
    8.4564    0.2803   -1.4088 H   0  0  0  0  0  0  0  0  0  0  0  0
    7.6497    1.6508    0.2788 H   0  0  0  0  0  0  0  0  0  0  0  0
    5.0030    2.5233   -0.8580 H   0  0  0  0  0  0  0  0  0  0  0  0
    6.4297    3.5234   -0.7262 H   0  0  0  0  0  0  0  0  0  0  0  0
    6.4297    2.1373   -1.7901 H   0  0  0  0  0  0  0  0  0  0  0  0
    6.4297    1.5848    2.4032 H   0  0  0  0  0  0  0  0  0  0  0  0
    6.4297    3.1992    1.7346 H   0  0  0  0  0  0  0  0  0  0  0  0
    5.0030    2.1990    1.6029 H   0  0  0  0  0  0  0  0  0  0  0  0
  1  2  1  0  0  0  0
  2  3  1  0  0  0  0
  2  7  1  0  0  0  0
  2 25  1  0  0  0  0
  2 33  1  0  0  0  0
  2 34  1  0  0  0  0
  3  4  1  0  0  0  0
  3 32  1  0  0  0  0
  4  5  1  0  0  0  0
  4 17  2  0  0  0  0
  5  6  1  0  0  0  0
  5 14  2  0  0  0  0
  6  7  1  0  0  0  0
  6 35  1  0  0  0  0
  6 36  1  0  0  0  0
  7  8  1  0  0  0  0
  7 11  1  0  0  0  0
  8  9  1  0  0  0  0
  8 10  1  0  0  0  0
  8 37  1  0  0  0  0
  9 38  1  0  0  0  0
  9 39  1  0  0  0  0
  9 40  1  0  0  0  0
 10 41  1  0  0  0  0
 10 42  1  0  0  0  0
 10 43  1  0  0  0  0
 11 12  1  0  0  0  0
 11 13  1  0  0  0  0
 11 44  1  0  0  0  0
 12 45  1  0  0  0  0
 12 46  1  0  0  0  0
 12 47  1  0  0  0  0
 13 48  1  0  0  0  0
 13 49  1  0  0  0  0
 13 50  1  0  0  0  0
 14 15  1  0  0  0  0
 14 51  1  0  0  0  0
 15 16  2  0  0  0  0
 15 52  1  0  0  0  0
 16 17  1  0  0  0  0
 16 53  1  0  0  0  0
 17 18  1  0  0  0  0
 18 19  2  0  0  0  0
 18 54  1  0  0  0  0
 19 20  1  0  0  0  0
 19 32  1  0  0  0  0
 20 21  2  0  0  0  0
 20 55  1  0  0  0  0
 21 22  1  0  0  0  0
 21 56  1  0  0  0  0
 22 23  2  0  0  0  0
 22 57  1  0  0  0  0
 23 24  1  0  0  0  0
 23 32  1  0  0  0  0
 24 25  1  0  0  0  0
 24 58  1  0  0  0  0
 24 59  1  0  0  0  0
 25 26  1  0  0  0  0
 25 29  1  0  0  0  0
 26 27  1  0  0  0  0
 26 28  1  0  0  0  0
 26 60  1  0  0  0  0
 27 61  1  0  0  0  0
 27 62  1  0  0  0  0
 27 63  1  0  0  0  0
 28 64  1  0  0  0  0
 28 65  1  0  0  0  0
 28 66  1  0  0  0  0
 29 30  1  0  0  0  0
 29 31  1  0  0  0  0
 29 67  1  0  0  0  0
 30 68  1  0  0  0  0
 30 69  1  0  0  0  0
 30 70  1  0  0  0  0
 31 71  1  0  0  0  0
 31 72  1  0  0  0  0
 31 73  1  0  0  0  0
M  END
$$$$
