
     RDKit          3D

 26 26  0  0  0  0  0  0  0  0999 V2000
   -3.4894    0.8668   -0.0259 C   0  0  0  0  0  0  0  0  0  0  0  0
   -2.8296   -0.4571    0.3424 C   0  0  0  0  0  0  0  0  0  0  0  0
   -3.3410   -0.9593    1.6871 C   0  0  0  0  0  0  0  0  0  0  0  0
   -1.4079   -0.2666    0.4743 O   0  0  0  0  0  0  0  0  0  0  0  0
   -0.6893   -0.3261   -0.6731 C   0  0  0  0  0  0  0  0  0  0  0  0
   -1.1327   -0.5251   -1.7923 O   0  0  0  0  0  0  0  0  0  0  0  0
    0.7578   -0.1102   -0.3937 C   0  0  0  0  0  0  0  0  0  0  0  0
    1.2494    0.1171    0.9012 C   0  0  0  0  0  0  0  0  0  0  0  0
    2.6187    0.3150    1.1132 C   0  0  0  0  0  0  0  0  0  0  0  0
    3.5004    0.2853    0.0240 C   0  0  0  0  0  0  0  0  0  0  0  0
    3.0212    0.0594   -1.2727 C   0  0  0  0  0  0  0  0  0  0  0  0
    1.6513   -0.1375   -1.4761 C   0  0  0  0  0  0  0  0  0  0  0  0
    4.9379    0.4928    0.2444 N   0  0  0  0  0  0  0  0  0  0  0  0
    5.6831    0.4590   -0.7448 O   0  0  0  0  0  0  0  0  0  0  0  0
    5.3193    0.6893    1.4069 O   0  0  0  0  0  0  0  0  0  0  0  0
   -4.5773    0.7643   -0.0846 H   0  0  0  0  0  0  0  0  0  0  0  0
   -3.1254    1.2286   -0.9930 H   0  0  0  0  0  0  0  0  0  0  0  0
   -3.2482    1.6423    0.7096 H   0  0  0  0  0  0  0  0  0  0  0  0
   -3.0461   -1.2175   -0.4178 H   0  0  0  0  0  0  0  0  0  0  0  0
   -4.4219   -1.1281    1.6643 H   0  0  0  0  0  0  0  0  0  0  0  0
   -2.8466   -1.8995    1.9547 H   0  0  0  0  0  0  0  0  0  0  0  0
   -3.1127   -0.2459    2.4867 H   0  0  0  0  0  0  0  0  0  0  0  0
    0.5774    0.1430    1.7568 H   0  0  0  0  0  0  0  0  0  0  0  0
    2.9773    0.4895    2.1262 H   0  0  0  0  0  0  0  0  0  0  0  0
    3.6926    0.0334   -2.1292 H   0  0  0  0  0  0  0  0  0  0  0  0
    1.2815   -0.3129   -2.4862 H   0  0  0  0  0  0  0  0  0  0  0  0
  1  2  1  0
  2  3  1  0
  2  4  1  0
  4  5  1  0
  5  6  2  0
  5  7  1  0
  7  8  2  0
  8  9  1  0
  9 10  2  0
 10 11  1  0
 11 12  2  0
 10 13  1  0
 13 14  1  0
 13 15  2  0
 12  7  1  0
  1 16  1  0
  1 17  1  0
  1 18  1  0
  2 19  1  0
  3 20  1  0
  3 21  1  0
  3 22  1  0
  8 23  1  0
  9 24  1  0
 11 25  1  0
 12 26  1  0
M  CHG  2  13   1  14  -1
M  END
