
     RDKit          3D

 29 30  0  0  0  0  0  0  0  0999 V2000
   -1.4409   -1.0946   -0.2744 C   0  0  0  0  0  0  0  0  0  0  0  0
   -1.2857    0.3404   -0.1362 N   0  0  0  0  0  0  0  0  0  0  0  0
   -0.0383    1.0010   -0.1009 C   0  0  0  0  0  0  0  0  0  0  0  0
   -0.0286    2.9424   -0.0724 Au  0  0  0  0  0  3  0  0  0  0  0  0
   -0.7569    4.5350   -0.0641 Cl  0  0  0  0  0  0  0  0  0  0  0  0
    1.1941    0.3349   -0.0852 N   0  0  0  0  0  0  0  0  0  0  0  0
    1.7216   -0.6519   -1.0106 C   0  0  0  0  0  0  0  0  0  0  0  0
    3.2098   -0.6303   -0.8247 C   0  0  0  0  0  0  0  0  0  0  0  0
    3.4139   -0.1294    0.5723 C   0  0  0  0  0  0  0  0  0  0  0  0
    2.1638    0.6012    0.9770 C   0  0  0  0  0  0  0  0  0  0  0  0
   -2.5973    0.8998   -0.0491 C   0  0  0  0  0  0  0  0  0  0  0  0
   -3.3572   -0.1647    0.7212 C   0  0  0  0  0  0  0  0  0  0  0  0
   -2.8626   -1.4283    0.0330 C   0  0  0  0  0  0  0  0  0  0  0  0
   -0.7936   -1.5558    0.4849 H   0  0  0  0  0  0  0  0  0  0  0  0
   -1.1462   -1.3246   -1.3140 H   0  0  0  0  0  0  0  0  0  0  0  0
    1.3680   -1.6812   -0.7925 H   0  0  0  0  0  0  0  0  0  0  0  0
    1.4292   -0.4286   -2.0626 H   0  0  0  0  0  0  0  0  0  0  0  0
    3.7323   -0.0252   -1.5966 H   0  0  0  0  0  0  0  0  0  0  0  0
    3.6219   -1.6651   -0.8715 H   0  0  0  0  0  0  0  0  0  0  0  0
    4.3035    0.5396    0.5608 H   0  0  0  0  0  0  0  0  0  0  0  0
    3.6180   -0.9530    1.3014 H   0  0  0  0  0  0  0  0  0  0  0  0
    2.3633    1.6909    1.0541 H   0  0  0  0  0  0  0  0  0  0  0  0
    1.7233    0.2185    1.9313 H   0  0  0  0  0  0  0  0  0  0  0  0
   -2.6711    1.8887    0.4111 H   0  0  0  0  0  0  0  0  0  0  0  0
   -3.0998    0.9454   -1.0536 H   0  0  0  0  0  0  0  0  0  0  0  0
   -4.4408   -0.0697    0.6426 H   0  0  0  0  0  0  0  0  0  0  0  0
   -2.9534   -0.1923    1.7514 H   0  0  0  0  0  0  0  0  0  0  0  0
   -2.9392   -2.2730    0.7395 H   0  0  0  0  0  0  0  0  0  0  0  0
   -3.4512   -1.6699   -0.8722 H   0  0  0  0  0  0  0  0  0  0  0  0
  1  2  1  0
  2  3  1  0
  3  4  2  3
  4  5  1  0
  3  6  1  0
  6  7  1  0
  7  8  1  0
  8  9  1  0
  9 10  1  0
  2 11  1  0
 11 12  1  0
 12 13  1  0
 13  1  1  0
 10  6  1  0
  1 14  1  0
  1 15  1  0
  7 16  1  0
  7 17  1  0
  8 18  1  0
  8 19  1  0
  9 20  1  0
  9 21  1  0
 10 22  1  0
 10 23  1  0
 11 24  1  0
 11 25  1  0
 12 26  1  0
 12 27  1  0
 13 28  1  0
 13 29  1  0
M  END
