
 OpenBabel09252519233D

 73 77  0  0  0  0  0  0  0  0999 V2000
    0.9015   -0.0160    0.0070 Cl  0  0  0  0  0  0  0  0  0  0  0  0
    3.3315   -0.0160    0.0070 Ir  0  0  0  0  0  0  0  0  0  0  0  0
    3.3315    1.4337    0.1980 N   0  0  0  0  0  0  0  0  0  0  0  0
    2.7327    2.0133    1.2965 C   0  0  0  0  0  0  0  0  0  0  0  0
    2.1163    1.2374    2.2733 C   0  0  0  0  0  0  0  0  0  0  0  0
    2.0956   -0.2650    2.1528 C   0  0  0  0  0  0  0  0  0  0  0  0
    3.3315   -0.7168    1.3677 P   0  0  0  0  0  4  0  0  0  0  0  0
    3.2933   -2.5315    1.1345 C   0  0  0  0  0  0  0  0  0  0  0  0
    4.5205   -2.9677    0.3509 C   0  0  0  0  0  0  0  0  0  0  0  0
    3.2886   -3.2167    2.4914 C   0  0  0  0  0  0  0  0  0  0  0  0
    4.8461   -0.2679    2.2916 C   0  0  0  0  0  0  0  0  0  0  0  0
    4.8941    1.2390    2.4842 C   0  0  0  0  0  0  0  0  0  0  0  0
    4.8330   -0.9520    3.6489 C   0  0  0  0  0  0  0  0  0  0  0  0
    1.5205    1.8400    3.3607 C   0  0  0  0  0  0  0  0  0  0  0  0
    1.5291    3.2215    3.4956 C   0  0  0  0  0  0  0  0  0  0  0  0
    2.1306    4.0045    2.5541 C   0  0  0  0  0  0  0  0  0  0  0  0
    2.7454    3.4158    1.4384 C   0  0  0  0  0  0  0  0  0  0  0  0
    3.3398    4.1949    0.5148 C   0  0  0  0  0  0  0  0  0  0  0  0
    3.9181    3.6786   -0.5311 C   0  0  0  0  0  0  0  0  0  0  0  0
    4.5824    4.5832   -1.5562 C   0  0  0  0  0  0  0  0  0  0  0  0
    4.5726    5.9322   -1.3807 C   0  0  0  0  0  0  0  0  0  0  0  0
    3.1181    0.6661   -2.4931 C   0  0  0  0  0  0  0  0  0  0  0  0
    3.2520    1.9463   -2.0527 C   0  0  0  0  0  0  0  0  0  0  0  0
    6.4215   -1.0665    1.3757 C   0  0  0  0  0  0  0  0  0  0  0  0
    5.8115   -0.0160    0.0070 P   0  0  0  0  0  4  0  0  0  0  0  0
    6.4215   -0.6761   -1.5871 C   0  0  0  0  0  0  0  0  0  0  0  0
    5.9149    0.1964   -2.7239 C   0  0  0  0  0  0  0  0  0  0  0  0
    7.9415   -0.6761   -1.5871 C   0  0  0  0  0  0  0  0  0  0  0  0
    6.4215    1.6945    0.2324 C   0  0  0  0  0  0  0  0  0  0  0  0
    5.9149    2.5670   -0.9045 C   0  0  0  0  0  0  0  0  0  0  0  0
    5.9149    2.2428    1.5564 C   0  0  0  0  0  0  0  0  0  0  0  0
    3.9287    2.2248   -0.7205 C   0  0  0  0  0  3  0  0  0  0  0  0
    3.3315   -1.7213   -0.2177 H   0  0  0  0  0  0  0  0  0  0  0  0
    3.3315    0.7715   -1.5221 H   0  0  0  0  0  0  0  0  0  0  0  0
    1.2081   -0.5757    1.6421 H   0  0  0  0  0  0  0  0  0  0  0  0
    2.1096   -0.7039    3.1285 H   0  0  0  0  0  0  0  0  0  0  0  0
    2.4103   -2.8032    0.5947 H   0  0  0  0  0  0  0  0  0  0  0  0
    5.4035   -2.6959    0.8908 H   0  0  0  0  0  0  0  0  0  0  0  0
    4.4982   -4.0287    0.2146 H   0  0  0  0  0  0  0  0  0  0  0  0
    4.5238   -2.4854   -0.6042 H   0  0  0  0  0  0  0  0  0  0  0  0
    2.4247   -2.9096    3.0430 H   0  0  0  0  0  0  0  0  0  0  0  0
    3.2662   -4.2777    2.3551 H   0  0  0  0  0  0  0  0  0  0  0  0
    4.1716   -2.9449    3.0312 H   0  0  0  0  0  0  0  0  0  0  0  0
    5.7069   -0.5848    1.7408 H   0  0  0  0  0  0  0  0  0  0  0  0
    4.0333    1.5559    3.0350 H   0  0  0  0  0  0  0  0  0  0  0  0
    5.7797    1.5015    3.0244 H   0  0  0  0  0  0  0  0  0  0  0  0
    4.9033    1.7206    1.5287 H   0  0  0  0  0  0  0  0  0  0  0  0
    4.7992   -2.0129    3.5133 H   0  0  0  0  0  0  0  0  0  0  0  0
    5.7186   -0.6896    4.1891 H   0  0  0  0  0  0  0  0  0  0  0  0
    3.9721   -0.6352    4.1997 H   0  0  0  0  0  0  0  0  0  0  0  0
    1.0471    1.2373    4.1074 H   0  0  0  0  0  0  0  0  0  0  0  0
    1.0609    3.6754    4.3439 H   0  0  0  0  0  0  0  0  0  0  0  0
    2.1336    5.0686    2.6666 H   0  0  0  0  0  0  0  0  0  0  0  0
    3.3368    5.2572    0.6428 H   0  0  0  0  0  0  0  0  0  0  0  0
    5.0577    4.1590   -2.4159 H   0  0  0  0  0  0  0  0  0  0  0  0
    4.0973    6.3564   -0.5210 H   0  0  0  0  0  0  0  0  0  0  0  0
    2.6417    0.4700   -3.4309 H   0  0  0  0  0  0  0  0  0  0  0  0
    7.4915   -1.0665    1.3757 H   0  0  0  0  0  0  0  0  0  0  0  0
    6.0649   -0.6805    2.3078 H   0  0  0  0  0  0  0  0  0  0  0  0
    6.0649   -1.6763   -1.7188 H   0  0  0  0  0  0  0  0  0  0  0  0
    6.2715    1.1965   -2.5921 H   0  0  0  0  0  0  0  0  0  0  0  0
    6.2715   -0.1896   -3.6560 H   0  0  0  0  0  0  0  0  0  0  0  0
    4.8449    0.1964   -2.7239 H   0  0  0  0  0  0  0  0  0  0  0  0
    8.2982   -1.2903   -0.7868 H   0  0  0  0  0  0  0  0  0  0  0  0
    8.2982   -1.0621   -2.5191 H   0  0  0  0  0  0  0  0  0  0  0  0
    8.2982    0.3240   -1.4553 H   0  0  0  0  0  0  0  0  0  0  0  0
    7.4915    1.6945    0.2324 H   0  0  0  0  0  0  0  0  0  0  0  0
    4.8449    2.5670   -0.9045 H   0  0  0  0  0  0  0  0  0  0  0  0
    6.2715    3.5672   -0.7727 H   0  0  0  0  0  0  0  0  0  0  0  0
    6.2715    2.1811   -1.8365 H   0  0  0  0  0  0  0  0  0  0  0  0
    6.2715    1.6286    2.3567 H   0  0  0  0  0  0  0  0  0  0  0  0
    6.2715    3.2430    1.6882 H   0  0  0  0  0  0  0  0  0  0  0  0
    4.8449    2.2428    1.5564 H   0  0  0  0  0  0  0  0  0  0  0  0
  1  2  1  0  0  0  0
  2  3  1  0  0  0  0
  2  7  1  0  0  0  0
  2 25  1  0  0  0  0
  2 33  1  0  0  0  0
  2 34  1  0  0  0  0
  3  4  1  0  0  0  0
  3 32  1  0  0  0  0
  4  5  1  0  0  0  0
  4 17  2  0  0  0  0
  5  6  1  0  0  0  0
  5 14  2  0  0  0  0
  6  7  1  0  0  0  0
  6 35  1  0  0  0  0
  6 36  1  0  0  0  0
  7  8  1  0  0  0  0
  7 11  1  0  0  0  0
  8  9  1  0  0  0  0
  8 10  1  0  0  0  0
  8 37  1  0  0  0  0
  9 38  1  0  0  0  0
  9 39  1  0  0  0  0
  9 40  1  0  0  0  0
 10 41  1  0  0  0  0
 10 42  1  0  0  0  0
 10 43  1  0  0  0  0
 11 12  1  0  0  0  0
 11 13  1  0  0  0  0
 11 44  1  0  0  0  0
 12 45  1  0  0  0  0
 12 46  1  0  0  0  0
 12 47  1  0  0  0  0
 13 48  1  0  0  0  0
 13 49  1  0  0  0  0
 13 50  1  0  0  0  0
 14 15  1  0  0  0  0
 14 51  1  0  0  0  0
 15 16  2  0  0  0  0
 15 52  1  0  0  0  0
 16 17  1  0  0  0  0
 16 53  1  0  0  0  0
 17 18  1  0  0  0  0
 18 19  2  0  0  0  0
 18 54  1  0  0  0  0
 19 20  1  0  0  0  0
 19 32  1  0  0  0  0
 20 21  2  0  0  0  0
 20 55  1  0  0  0  0
 21 22  1  0  0  0  0
 21 56  1  0  0  0  0
 22 23  2  0  0  0  0
 22 57  1  0  0  0  0
 23 24  1  0  0  0  0
 23 32  1  0  0  0  0
 24 25  1  0  0  0  0
 24 58  1  0  0  0  0
 24 59  1  0  0  0  0
 25 26  1  0  0  0  0
 25 29  1  0  0  0  0
 26 27  1  0  0  0  0
 26 28  1  0  0  0  0
 26 60  1  0  0  0  0
 27 61  1  0  0  0  0
 27 62  1  0  0  0  0
 27 63  1  0  0  0  0
 28 64  1  0  0  0  0
 28 65  1  0  0  0  0
 28 66  1  0  0  0  0
 29 30  1  0  0  0  0
 29 31  1  0  0  0  0
 29 67  1  0  0  0  0
 30 68  1  0  0  0  0
 30 69  1  0  0  0  0
 30 70  1  0  0  0  0
 31 71  1  0  0  0  0
 31 72  1  0  0  0  0
 31 73  1  0  0  0  0
M  END
$$$$
