
 OpenBabel09252513243D

 47 52  0  0  0  0  0  0  0  0999 V2000
    1.0517    0.0651    0.0555 H   0  0  0  0  0  0  0  0  0  0  0  0
    2.1217    0.0651    0.0555 C   0  0  0  0  0  0  0  0  0  0  0  0
    2.7796    0.7543   -0.8519 N   0  0  0  0  0  4  0  0  0  0  0  0
    2.0251    1.6320   -1.8521 C   0  0  0  0  0  0  0  0  0  0  0  0
    2.1820    2.6627   -1.6115 H   0  0  0  0  0  0  0  0  0  0  0  0
    2.3859    1.4376   -2.8404 H   0  0  0  0  0  0  0  0  0  0  0  0
    0.5304    1.3141   -1.7832 C   0  0  0  0  0  0  0  0  0  0  0  0
    0.3852    0.3913   -1.2614 H   0  0  0  0  0  0  0  0  0  0  0  0
    0.0219    2.1001   -1.2650 H   0  0  0  0  0  0  0  0  0  0  0  0
   -0.0302    1.1921   -3.2022 C   0  0  0  0  0  0  0  0  0  0  0  0
   -1.0711    1.4401   -3.1972 H   0  0  0  0  0  0  0  0  0  0  0  0
    0.4930    1.8628   -3.8513 H   0  0  0  0  0  0  0  0  0  0  0  0
    0.1470   -0.2220   -3.6925 N   0  0  0  0  0  4  0  0  0  0  0  0
    0.8599   -0.4596   -4.7657 C   0  0  0  0  0  0  0  0  0  0  0  0
    1.5089    0.6914   -5.5169 C   0  0  0  0  0  0  0  0  0  0  0  0
    2.5699    0.5540   -5.5326 H   0  0  0  0  0  0  0  0  0  0  0  0
    1.1376    0.7170   -6.5201 H   0  0  0  0  0  0  0  0  0  0  0  0
    1.2759    1.6136   -5.0268 H   0  0  0  0  0  0  0  0  0  0  0  0
    1.0366   -1.8730   -5.2553 C   0  0  0  0  0  3  0  0  0  0  0  0
    2.4728   -2.0884   -5.6614 C   0  0  0  0  0  3  0  0  0  0  0  0
    2.8807   -1.1232   -5.8781 H   0  0  0  0  0  0  0  0  0  0  0  0
    3.4306   -2.7627   -4.7136 C   0  0  0  0  0  3  0  0  0  0  0  0
    3.9929   -3.5041   -5.2419 H   0  0  0  0  0  0  0  0  0  0  0  0
    4.3369   -1.7726   -4.1570 C   0  0  0  0  0  3  0  0  0  0  0  0
    3.8932   -0.8100   -4.3037 H   0  0  0  0  0  0  0  0  0  0  0  0
    4.6365   -1.8862   -2.8537 C   0  0  0  0  0  3  0  0  0  0  0  0
    3.7113   -1.8359   -2.3186 H   0  0  0  0  0  0  0  0  0  0  0  0
    5.5682   -0.8949   -2.2060 C   0  0  0  0  0  3  0  0  0  0  0  0
    4.9749   -0.4329   -0.8734 O   0  0  0  0  0  0  0  0  0  0  0  0
    4.2857    0.9167   -1.0658 Cu  0  0  0  0  0  0  0  0  0  0  0  0
    5.7453    2.2259   -0.7901 O   0  0  0  0  0  0  0  0  0  0  0  0
    6.6002    1.7700    0.2480 C   0  0  0  0  0  3  0  0  0  0  0  0
    7.1667    0.4187   -0.1906 C   0  0  0  0  0  3  0  0  0  0  0  0
    7.8030    0.0323    0.5780 H   0  0  0  0  0  0  0  0  0  0  0  0
    6.0174   -0.5594   -0.4405 C   0  0  0  0  0  3  0  0  0  0  0  0
    6.4139   -1.5048   -0.7469 H   0  0  0  0  0  0  0  0  0  0  0  0
    5.2106   -0.7379    0.8467 C   0  0  0  0  0  3  0  0  0  0  0  0
    4.0614   -1.7160    0.5968 C   0  0  0  0  0  3  0  0  0  0  0  0
    4.4579   -2.6614    0.2904 H   0  0  0  0  0  0  0  0  0  0  0  0
    3.2546   -1.8946    1.8841 C   0  0  0  0  0  3  0  0  0  0  0  0
    3.8907   -2.2809    2.6528 H   0  0  0  0  0  0  0  0  0  0  0  0
    2.6874   -0.5438    2.3231 C   0  0  0  0  0  3  0  0  0  0  0  0
    2.1238   -0.6692    3.2239 H   0  0  0  0  0  0  0  0  0  0  0  0
    3.8374    0.4348    2.5726 C   0  0  0  0  0  3  0  0  0  0  0  0
    4.4736    0.0487    3.3414 H   0  0  0  0  0  0  0  0  0  0  0  0
    4.6442    0.6133    1.2853 C   0  0  0  0  0  3  0  0  0  0  0  0
    5.7934    1.5914    1.5352 C   0  0  0  0  0  3  0  0  0  0  0  0
  1  2  1  0  0  0  0
  2  3  2  0  0  0  0
  2 47  1  0  0  0  0
  3  4  1  0  0  0  0
  3 30  1  0  0  0  0
  4  5  1  0  0  0  0
  4  6  1  0  0  0  0
  4  7  1  0  0  0  0
  7  8  1  0  0  0  0
  7  9  1  0  0  0  0
  7 10  1  0  0  0  0
 10 11  1  0  0  0  0
 10 12  1  0  0  0  0
 10 13  1  0  0  0  0
 13 14  2  0  0  0  0
 13 30  1  0  0  0  0
 14 15  1  0  0  0  0
 14 19  1  0  0  0  0
 15 16  1  0  0  0  0
 15 17  1  0  0  0  0
 15 18  1  0  0  0  0
 19 20  1  0  0  0  0
 19 28  1  0  0  0  0
 20 21  1  0  0  0  0
 20 22  1  0  0  0  0
 22 23  1  0  0  0  0
 22 24  1  0  0  0  0
 24 25  1  0  0  0  0
 24 26  1  0  0  0  0
 26 27  1  0  0  0  0
 26 28  1  0  0  0  0
 28 29  1  0  0  0  0
 29 30  1  0  0  0  0
 30 31  1  0  0  0  0
 31 32  1  0  0  0  0
 32 33  1  0  0  0  0
 32 47  1  0  0  0  0
 33 34  1  0  0  0  0
 33 35  1  0  0  0  0
 35 36  1  0  0  0  0
 35 37  1  0  0  0  0
 37 38  1  0  0  0  0
 37 46  1  0  0  0  0
 38 39  1  0  0  0  0
 38 40  1  0  0  0  0
 40 41  1  0  0  0  0
 40 42  1  0  0  0  0
 42 43  1  0  0  0  0
 42 44  1  0  0  0  0
 44 45  1  0  0  0  0
 44 46  1  0  0  0  0
 46 47  1  0  0  0  0
M  END
$$$$
