
 OpenBabel09252519453D

 75 87  0  0  1  0  0  0  0  0999 V2000
    1.0803   -0.0488   -0.0343 H   0  0  0  0  0  0  0  0  0  0  0  0
    2.1503   -0.0488   -0.0343 C   0  0  0  0  0  3  0  0  0  0  0  0
    2.5644   -1.1838    0.6206 C   0  0  0  0  0  3  0  0  0  0  0  0
    3.6103   -1.0854    0.8236 H   0  0  0  0  0  0  0  0  0  0  0  0
    2.3574   -2.4585   -0.1227 C   0  0  0  0  0  3  0  0  0  0  0  0
    2.8403   -3.2616    0.3939 H   0  0  0  0  0  0  0  0  0  0  0  0
    2.9532   -2.3045   -1.4943 C   0  0  1  0  0  0  0  0  0  0  0  0
    3.0912   -1.3717   -3.5732 C   0  0  1  0  0  0  0  0  0  0  0  0
    4.2786   -1.1317   -4.9977 Si  0  0  0  0  0  0  0  0  0  0  0  0
    5.7755   -0.1788   -4.4077 C   0  0  0  0  0  0  0  0  0  0  0  0
    6.2613   -0.7256   -3.6267 H   0  0  0  0  0  0  0  0  0  0  0  0
    6.4550   -0.0415   -5.2228 H   0  0  0  0  0  0  0  0  0  0  0  0
    5.4668    0.7759   -4.0359 H   0  0  0  0  0  0  0  0  0  0  0  0
    4.8181   -2.8001   -5.6474 C   0  0  0  0  0  0  0  0  0  0  0  0
    3.9615   -3.3454   -5.9850 H   0  0  0  0  0  0  0  0  0  0  0  0
    5.4975   -2.6628   -6.4625 H   0  0  0  0  0  0  0  0  0  0  0  0
    5.3038   -3.3469   -4.8664 H   0  0  0  0  0  0  0  0  0  0  0  0
    3.4296   -0.1761   -6.3626 C   0  0  0  0  0  0  0  0  0  0  0  0
    2.5731   -0.7213   -6.7003 H   0  0  0  0  0  0  0  0  0  0  0  0
    3.1210    0.7786   -5.9909 H   0  0  0  0  0  0  0  0  0  0  0  0
    4.1091   -0.0387   -7.1777 H   0  0  0  0  0  0  0  0  0  0  0  0
    5.1264    3.0071    0.1826 C   0  0  1  0  0  0  0  0  0  0  0  0
    4.7579    3.9579   -0.1416 H   0  0  0  0  0  0  0  0  0  0  0  0
    4.5460    1.9120   -0.6974 C   0  0  1  0  0  0  0  0  0  0  0  0
    3.1862    2.0423   -0.6227 C   0  0  1  0  0  0  0  0  0  0  0  0
    2.6070    1.2806    0.5328 C   0  0  0  0  0  3  0  0  0  0  0  0
    1.7775    1.8118    0.9507 H   0  0  0  0  0  0  0  0  0  0  0  0
    4.2307   -2.6544   -1.7411 Zr  0  0  0  0  0  0  0  0  0  0  0  0
    4.2054   -5.4216   -1.8627 Cl  0  0  0  0  0  0  0  0  0  0  0  0
    5.2911   -4.2429    0.2651 Cl  0  0  0  0  0  0  0  0  0  0  0  0
    4.9841   -2.3359   -2.9524 C   0  0  2  0  0  0  0  0  0  0  0  0
    4.3859   -2.4900   -3.8261 H   0  0  0  0  0  0  0  0  0  0  0  0
    6.2165   -3.2429   -2.9988 C   0  0  2  0  0  0  0  0  0  0  0  0
    7.6113   -3.5237   -4.2123 Si  0  0  0  0  0  0  0  0  0  0  0  0
    6.9527   -4.4010   -5.7268 C   0  0  0  0  0  0  0  0  0  0  0  0
    6.1959   -3.8001   -6.1861 H   0  0  0  0  0  0  0  0  0  0  0  0
    7.7508   -4.5617   -6.4212 H   0  0  0  0  0  0  0  0  0  0  0  0
    6.5347   -5.3432   -5.4396 H   0  0  0  0  0  0  0  0  0  0  0  0
    8.3419   -1.8772   -4.7142 C   0  0  0  0  0  0  0  0  0  0  0  0
    8.7188   -1.3752   -3.8477 H   0  0  0  0  0  0  0  0  0  0  0  0
    9.1400   -2.0379   -5.4086 H   0  0  0  0  0  0  0  0  0  0  0  0
    7.5851   -1.2763   -5.1736 H   0  0  0  0  0  0  0  0  0  0  0  0
    8.9340   -4.5739   -3.4096 C   0  0  0  0  0  0  0  0  0  0  0  0
    9.3109   -4.0719   -2.5430 H   0  0  0  0  0  0  0  0  0  0  0  0
    8.5160   -5.5161   -3.1224 H   0  0  0  0  0  0  0  0  0  0  0  0
    9.7321   -4.7346   -4.1039 H   0  0  0  0  0  0  0  0  0  0  0  0
    6.2226   -4.0253   -1.6756 C   0  0  2  0  0  0  0  0  0  0  0  0
    7.3221   -5.0470   -1.4359 C   0  0  0  0  0  3  0  0  0  0  0  0
    6.9651   -6.0222   -1.6938 H   0  0  0  0  0  0  0  0  0  0  0  0
    8.5278   -4.7050   -2.2959 C   0  0  0  0  0  3  0  0  0  0  0  0
    8.8848   -3.7298   -2.0380 H   0  0  0  0  0  0  0  0  0  0  0  0
    9.6273   -5.7268   -2.0562 C   0  0  0  0  0  3  0  0  0  0  0  0
   10.4761   -5.4860   -2.6616 H   0  0  0  0  0  0  0  0  0  0  0  0
    4.8817   -4.1269    0.4990 C   0  0  0  0  0  3  0  0  0  0  0  0
    5.7979   -4.5897    0.8010 H   0  0  0  0  0  0  0  0  0  0  0  0
    5.0808   -3.4347   -0.8395 C   0  0  2  0  0  0  0  0  0  0  0  0
    5.4148   -0.8829   -2.8928 C   0  0  2  0  0  0  0  0  0  0  0  0
    4.7553   -0.0914   -1.9830 Si  0  0  0  0  0  0  0  0  0  0  0  0
    5.2178   -0.7631   -0.3002 C   0  0  0  0  0  0  0  0  0  0  0  0
    4.7100   -0.2050    0.4585 H   0  0  0  0  0  0  0  0  0  0  0  0
    4.9331   -1.7926   -0.2366 H   0  0  0  0  0  0  0  0  0  0  0  0
    6.2750   -0.6761   -0.1597 H   0  0  0  0  0  0  0  0  0  0  0  0
    2.9270   -0.1810   -2.3652 C   0  0  0  0  0  0  0  0  0  0  0  0
    2.7528    0.1730   -3.3598 H   0  0  0  0  0  0  0  0  0  0  0  0
    2.5950   -1.1949   -2.2842 H   0  0  0  0  0  0  0  0  0  0  0  0
    2.3871    0.4278   -1.6703 H   0  0  0  0  0  0  0  0  0  0  0  0
    5.1478    1.3464   -1.9644 Si  0  0  0  0  0  0  0  0  0  0  0  0
    4.5425    2.2512   -3.4848 C   0  0  0  0  0  0  0  0  0  0  0  0
    4.8285    3.2806   -3.4248 H   0  0  0  0  0  0  0  0  0  0  0  0
    4.9763    1.8109   -4.3583 H   0  0  0  0  0  0  0  0  0  0  0  0
    3.4764    2.1800   -3.5415 H   0  0  0  0  0  0  0  0  0  0  0  0
    7.0099    1.5156   -1.9360 C   0  0  0  0  0  0  0  0  0  0  0  0
    7.3981    1.0377   -1.0609 H   0  0  0  0  0  0  0  0  0  0  0  0
    7.4234    1.0534   -2.8080 H   0  0  0  0  0  0  0  0  0  0  0  0
    7.2736    2.5525   -1.9229 H   0  0  0  0  0  0  0  0  0  0  0  0
  1  2  1  0  0  0  0
  2  3  1  0  0  0  0
  2 26  1  0  0  0  0
  3  4  1  0  0  0  0
  3  5  1  0  0  0  0
  5  6  1  0  0  0  0
  7  5  1  1  0  0  0
  7  8  1  0  0  0  0
  7 25  1  0  0  0  0
  7 28  1  0  0  0  0
  8  9  1  6  0  0  0
  8 22  1  0  0  0  0
  8 28  1  0  0  0  0
  9 10  1  0  0  0  0
  9 14  1  0  0  0  0
  9 18  1  0  0  0  0
 10 11  1  0  0  0  0
 10 12  1  0  0  0  0
 10 13  1  0  0  0  0
 14 15  1  0  0  0  0
 14 16  1  0  0  0  0
 14 17  1  0  0  0  0
 18 19  1  0  0  0  0
 18 20  1  0  0  0  0
 18 21  1  0  0  0  0
 22 23  1  1  0  0  0
 22 24  1  0  0  0  0
 22 28  1  0  0  0  0
 24 25  1  0  0  0  0
 24 28  1  0  0  0  0
 24 67  1  1  0  0  0
 25 26  1  1  0  0  0
 25 28  1  0  0  0  0
 26 27  1  0  0  0  0
 28 29  1  0  0  0  0
 28 30  1  0  0  0  0
 28 31  1  0  0  0  0
 28 33  1  0  0  0  0
 28 47  1  0  0  0  0
 28 56  1  0  0  0  0
 28 57  1  0  0  0  0
 31 32  1  6  0  0  0
 31 33  1  0  0  0  0
 31 57  1  0  0  0  0
 33 34  1  6  0  0  0
 33 47  1  0  0  0  0
 34 35  1  0  0  0  0
 34 39  1  0  0  0  0
 34 43  1  0  0  0  0
 35 36  1  0  0  0  0
 35 37  1  0  0  0  0
 35 38  1  0  0  0  0
 39 40  1  0  0  0  0
 39 41  1  0  0  0  0
 39 42  1  0  0  0  0
 43 44  1  0  0  0  0
 43 45  1  0  0  0  0
 43 46  1  0  0  0  0
 47 48  1  6  0  0  0
 47 56  1  0  0  0  0
 48 49  1  0  0  0  0
 48 50  1  0  0  0  0
 50 51  1  0  0  0  0
 50 52  1  0  0  0  0
 52 53  1  0  0  0  0
 52 54  1  0  0  0  0
 54 55  1  0  0  0  0
 56 54  1  1  0  0  0
 56 57  1  0  0  0  0
 57 58  1  6  0  0  0
 58 59  1  0  0  0  0
 58 63  1  0  0  0  0
 58 67  1  0  0  0  0
 59 60  1  0  0  0  0
 59 61  1  0  0  0  0
 59 62  1  0  0  0  0
 63 64  1  0  0  0  0
 63 65  1  0  0  0  0
 63 66  1  0  0  0  0
 67 68  1  0  0  0  0
 67 72  1  0  0  0  0
 68 69  1  0  0  0  0
 68 70  1  0  0  0  0
 68 71  1  0  0  0  0
 72 73  1  0  0  0  0
 72 74  1  0  0  0  0
 72 75  1  0  0  0  0
M  END
$$$$
