
  --CCDC--092525    3D                              

 75 87  0  0  0  0  0  0  0  0999 V2000
   -1.2211    1.9101   -1.7527 Cl     0
    0.9102    2.1028   -0.0425 Zr     0
    1.0473    4.1558   -1.8404 Cl     0
    1.1393    2.6864    2.2477 C      0
    1.2361    4.0171    1.3367 C      0
   -0.2425    4.0242    0.7110 C      0
   -0.7952    5.0135   -0.0849 C      0
   -2.1293    4.8958   -0.4739 C      0
   -2.8977    3.7970   -0.1244 C      0
   -2.3507    2.7306    0.5902 C      0
   -1.0491    2.8474    1.0468 C      0
   -0.2490    1.8795    2.0218 C      0
   -0.6107    0.1048    2.4957 Si     0
    0.4977   -0.3946    3.9297 C      0
   -2.3867   -0.0523    3.0904 C      0
   -0.2407   -1.1389    0.5424 Si     0
    0.2872   -2.9031    0.9184 C      0
   -1.7660   -1.2361   -0.5520 C      0
    1.1560   -0.2275   -0.3063 C      0
    1.1578    0.4567   -1.7689 C      0
    2.3092    1.6105   -1.8943 C      0
    3.1144    1.4144   -0.5291 C      0
    4.2797    2.0347   -0.1165 C      0
    4.8245    1.6757    1.1144 C      0
    4.2288    0.7216    1.9218 C      0
    3.0663    0.0626    1.5302 C      0
    2.4961    0.3896    0.3139 C      0
    2.7279    2.5680   -3.4608 Si     0
    3.8533    1.4103   -4.4125 C      0
    3.7806    4.1147   -3.2995 C      0
    1.2890    2.8164   -4.6429 C      0
    2.6561    5.2417    1.2330 Si     0
    3.9503    4.8331    2.5255 C      0
    1.9997    6.9374    1.6870 C      0
    3.5227    5.4385   -0.4142 C      0
    2.0541    2.1629    2.5617 H      0
   -0.2171    5.8886   -0.3637 H      0
   -2.5788    5.6879   -1.0637 H      0
   -3.9367    3.7535   -0.4339 H      0
   -2.9423    1.8494    0.8149 H      0
    0.4496   -1.4682    4.0995 H      0
    0.1868    0.1058    4.8444 H      0
    1.5330   -0.1251    3.7391 H      0
   -2.5563    0.5695    3.9670 H      0
   -2.6147   -1.0824    3.3562 H      0
   -3.0823    0.2594    2.3141 H      0
   -0.4998   -3.4367    1.4471 H      0
    1.1806   -2.9143    1.5394 H      0
    0.5059   -3.4442    0.0002 H      0
   -2.2920   -0.2860   -0.5786 H      0
   -2.4575   -1.9868   -0.1753 H      0
   -1.4953   -1.5075   -1.5702 H      0
    1.9386   -0.2668   -2.0501 H      0
    4.7810    2.7563   -0.7514 H      0
    5.7391    2.1546    1.4479 H      0
    4.6826    0.4756    2.8762 H      0
    2.6304   -0.7100    2.1532 H      0
    4.1492    1.8535   -5.3611 H      0
    3.3504    0.4683   -4.6206 H      0
    4.7551    1.1946   -3.8432 H      0
    4.2600    4.3438   -4.2489 H      0
    4.5630    3.9705   -2.5573 H      0
    3.1960    4.9841   -3.0121 H      0
    1.6283    2.7363   -5.6735 H      0
    0.8180    3.7885   -4.5254 H      0
    0.5289    2.0546   -4.4824 H      0
    4.8638    5.3959    2.3457 H      0
    4.1979    3.7759    2.5124 H      0
    3.5906    5.0828    3.5215 H      0
    1.5436    6.9226    2.6746 H      0
    1.2482    7.2644    0.9714 H      0
    2.8022    7.6721    1.6953 H      0
    3.8409    4.4759   -0.7975 H      0
    4.4041    6.0675   -0.3079 H      0
    2.8699    5.9054   -1.1476 H      0
  1  2  1
  2  3  1
  2  4  1
  4  5  1
  2  5  1
  5  6  1
  2  6  1
  6  7  4
  7  8  4
  8  9  4
  9 10  4
 10 11  4
  2 11  1
  6 11  4
 11 12  1
  2 12  1
  4 12  1
 12 13  1
 13 14  1
 13 15  1
 13 16  1
 16 17  1
 16 18  1
 16 19  1
  2 19  1
 19 20  1
  2 20  1
 20 21  1
  2 21  1
 21 22  1
  2 22  1
 22 23  4
 23 24  4
 24 25  4
 25 26  4
 26 27  4
  2 27  1
 19 27  1
 22 27  4
 21 28  1
 28 29  1
 28 30  1
 28 31  1
  5 32  1
 32 33  1
 32 34  1
 32 35  1
  4 36  1
  7 37  1
  8 38  1
  9 39  1
 10 40  1
 14 41  1
 14 42  1
 14 43  1
 15 44  1
 15 45  1
 15 46  1
 17 47  1
 17 48  1
 17 49  1
 18 50  1
 18 51  1
 18 52  1
 20 53  1
 23 54  1
 24 55  1
 25 56  1
 26 57  1
 29 58  1
 29 59  1
 29 60  1
 30 61  1
 30 62  1
 30 63  1
 31 64  1
 31 65  1
 31 66  1
 33 67  1
 33 68  1
 33 69  1
 34 70  1
 34 71  1
 34 72  1
 35 73  1
 35 74  1
 35 75  1
M  END
$$$$
