
 OpenBabel09252513513D

 47 52  0  0  0  0  0  0  0  0999 V2000
    1.0538   -0.0470   -0.0699 H   0  0  0  0  0  0  0  0  0  0  0  0
    2.1238   -0.0470   -0.0699 C   0  0  0  0  0  0  0  0  0  0  0  0
    2.7817    0.3855   -1.1240 N   0  0  0  0  0  4  0  0  0  0  0  0
    2.1089    0.9423   -2.3800 C   0  0  0  0  0  0  0  0  0  0  0  0
    2.2875    1.9954   -2.4433 H   0  0  0  0  0  0  0  0  0  0  0  0
    2.5132    0.4594   -3.2450 H   0  0  0  0  0  0  0  0  0  0  0  0
    0.6029    0.6838   -2.3088 C   0  0  0  0  0  0  0  0  0  0  0  0
    0.4007   -0.0419   -1.5489 H   0  0  0  0  0  0  0  0  0  0  0  0
    0.0950    1.5959   -2.0744 H   0  0  0  0  0  0  0  0  0  0  0  0
    0.1119    0.1588   -3.6601 C   0  0  0  0  0  0  0  0  0  0  0  0
   -0.9190    0.4146   -3.7890 H   0  0  0  0  0  0  0  0  0  0  0  0
    0.6896    0.5997   -4.4454 H   0  0  0  0  0  0  0  0  0  0  0  0
    0.2668   -1.3398   -3.7030 N   0  0  0  0  0  4  0  0  0  0  0  0
    1.0254   -1.8948   -4.6157 C   0  0  0  0  0  0  0  0  0  0  0  0
    1.7499   -1.0270   -5.6319 C   0  0  0  0  0  0  0  0  0  0  0  0
    2.8052   -1.1808   -5.5444 H   0  0  0  0  0  0  0  0  0  0  0  0
    1.4315   -1.2919   -6.6185 H   0  0  0  0  0  0  0  0  0  0  0  0
    1.5229    0.0023   -5.4482 H   0  0  0  0  0  0  0  0  0  0  0  0
    1.1799   -3.3925   -4.6584 C   0  0  0  0  0  3  0  0  0  0  0  0
    2.6270   -3.7419   -4.8985 C   0  0  0  0  0  3  0  0  0  0  0  0
    3.0773   -2.8903   -5.3642 H   0  0  0  0  0  0  0  0  0  0  0  0
    3.5122   -4.1230   -3.7403 C   0  0  0  0  0  3  0  0  0  0  0  0
    4.0758   -4.9964   -3.9941 H   0  0  0  0  0  0  0  0  0  0  0  0
    4.4212   -3.0282   -3.4461 C   0  0  0  0  0  3  0  0  0  0  0  0
    4.0178   -2.1443   -3.8942 H   0  0  0  0  0  0  0  0  0  0  0  0
    4.6498   -2.7580   -2.1515 C   0  0  0  0  0  3  0  0  0  0  0  0
    3.7006   -2.5369   -1.7098 H   0  0  0  0  0  0  0  0  0  0  0  0
    5.5796   -1.6356   -1.7693 C   0  0  0  0  0  3  0  0  0  0  0  0
    4.9346   -0.7918   -0.6678 O   0  0  0  0  0  0  0  0  0  0  0  0
    4.3013    0.4526   -1.2874 Cu  0  0  0  0  0  0  0  0  0  0  0  0
    5.7876    1.7603   -1.3224 O   0  0  0  0  0  0  0  0  0  0  0  0
    6.5727    1.6161   -0.1480 C   0  0  0  0  0  3  0  0  0  0  0  0
    7.1402    0.1970   -0.0913 C   0  0  0  0  0  3  0  0  0  0  0  0
    7.7324    0.0847    0.7928 H   0  0  0  0  0  0  0  0  0  0  0  0
    5.9905   -0.8117   -0.0663 C   0  0  0  0  0  3  0  0  0  0  0  0
    6.3877   -1.8044   -0.0262 H   0  0  0  0  0  0  0  0  0  0  0  0
    5.1190   -0.5611    1.1656 C   0  0  0  0  0  3  0  0  0  0  0  0
    3.9692   -1.5698    1.1906 C   0  0  0  0  0  3  0  0  0  0  0  0
    4.3665   -2.5625    1.2307 H   0  0  0  0  0  0  0  0  0  0  0  0
    3.0977   -1.3192    2.4225 C   0  0  0  0  0  3  0  0  0  0  0  0
    3.6897   -1.4313    3.3068 H   0  0  0  0  0  0  0  0  0  0  0  0
    2.5294    0.0996    2.3664 C   0  0  0  0  0  3  0  0  0  0  0  0
    1.9205    0.2745    3.2287 H   0  0  0  0  0  0  0  0  0  0  0  0
    3.6800    1.1085    2.3408 C   0  0  0  0  0  3  0  0  0  0  0  0
    4.2719    0.9967    3.2251 H   0  0  0  0  0  0  0  0  0  0  0  0
    4.5515    0.8580    1.1089 C   0  0  0  0  0  3  0  0  0  0  0  0
    5.7012    1.8666    1.0839 C   0  0  0  0  0  3  0  0  0  0  0  0
  1  2  1  0  0  0  0
  2  3  2  0  0  0  0
  2 47  1  0  0  0  0
  3  4  1  0  0  0  0
  3 30  1  0  0  0  0
  4  5  1  0  0  0  0
  4  6  1  0  0  0  0
  4  7  1  0  0  0  0
  7  8  1  0  0  0  0
  7  9  1  0  0  0  0
  7 10  1  0  0  0  0
 10 11  1  0  0  0  0
 10 12  1  0  0  0  0
 10 13  1  0  0  0  0
 13 14  2  0  0  0  0
 13 30  1  0  0  0  0
 14 15  1  0  0  0  0
 14 19  1  0  0  0  0
 15 16  1  0  0  0  0
 15 17  1  0  0  0  0
 15 18  1  0  0  0  0
 19 20  1  0  0  0  0
 19 28  1  0  0  0  0
 20 21  1  0  0  0  0
 20 22  1  0  0  0  0
 22 23  1  0  0  0  0
 22 24  1  0  0  0  0
 24 25  1  0  0  0  0
 24 26  1  0  0  0  0
 26 27  1  0  0  0  0
 26 28  1  0  0  0  0
 28 29  1  0  0  0  0
 29 30  1  0  0  0  0
 30 31  1  0  0  0  0
 31 32  1  0  0  0  0
 32 33  1  0  0  0  0
 32 47  1  0  0  0  0
 33 34  1  0  0  0  0
 33 35  1  0  0  0  0
 35 36  1  0  0  0  0
 35 37  1  0  0  0  0
 37 38  1  0  0  0  0
 37 46  1  0  0  0  0
 38 39  1  0  0  0  0
 38 40  1  0  0  0  0
 40 41  1  0  0  0  0
 40 42  1  0  0  0  0
 42 43  1  0  0  0  0
 42 44  1  0  0  0  0
 44 45  1  0  0  0  0
 44 46  1  0  0  0  0
 46 47  1  0  0  0  0
M  END
$$$$
