
 OpenBabel09252519543D

 71 77  0  0  0  0  0  0  0  0999 V2000
    0.9791   -0.0331    0.0920 C   0  0  0  0  0  0  0  0  0  0  0  0
    0.3758   -1.7105    0.4054 S   0  0  0  0  0  0  0  0  0  0  0  0
   -1.4342   -1.7105    0.4054 C   0  0  0  0  0  0  0  0  0  0  0  0
    0.8860   -2.6492   -0.6905 O   0  0  0  0  0  0  0  0  0  0  0  0
    0.2530   -5.1910   -0.6374 U   0  3  0  0  0  0  0  0  0  0  0  0
   -1.0187   -6.6289    1.1457 O   0  0  0  0  0  0  0  0  0  0  0  0
   -2.1539   -7.3919    0.7641 C   0  0  0  0  0  0  0  0  0  0  0  0
   -2.7708   -8.0893    1.6290 O   0  0  0  0  0  0  0  0  0  0  0  0
   -1.3953   -4.5899    5.6026 C   0  0  0  0  0  0  0  0  0  0  0  0
   -0.2124   -4.5743    4.7300 N   0  0  0  0  0  0  0  0  0  0  0  0
    0.5537   -3.2876    4.4208 C   0  0  0  0  0  0  0  0  0  0  0  0
   -0.2368   -2.4471    3.4166 C   0  0  0  0  0  0  0  0  0  0  0  0
    0.6343   -2.1539    2.1945 N   0  0  0  0  0  4  0  0  0  0  0  0
    0.4319   -3.2471    1.1433 C   0  0  0  0  0  0  0  0  0  0  0  0
    1.7786   -3.8958    0.8135 C   0  0  0  0  0  0  0  0  0  0  0  0
    1.5530   -5.2040    0.0544 N   0  0  0  0  0  0  0  0  0  0  0  0
    1.6608   -6.4101    0.9882 C   0  0  0  0  0  0  0  0  0  0  0  0
    0.8087   -6.1901    2.2386 C   0  0  0  0  0  0  0  0  0  0  0  0
    1.1469   -7.2610    3.2785 N   0  0  0  0  0  0  0  0  0  0  0  0
    0.3537   -7.0041    4.5612 C   0  0  0  0  0  0  0  0  0  0  0  0
    0.7698   -5.6629    5.1665 C   0  0  0  0  0  0  0  0  0  0  0  0
    1.0001   -7.4892   -3.3296 C   0  0  0  0  0  0  0  0  0  0  0  0
    0.2628   -8.3281   -2.2986 C   0  0  0  0  0  0  0  0  0  0  0  0
    0.0492   -9.5616   -2.5182 O   0  0  0  0  0  0  0  0  0  0  0  0
   -0.1873   -7.7338   -1.0901 O   0  0  0  0  0  0  0  0  0  0  0  0
    2.5546   -5.3311   -1.0791 C   0  0  0  0  0  0  0  0  0  0  0  0
    1.8262   -5.3280   -2.2120 C   0  0  0  0  0  0  0  0  0  0  0  0
    2.3226   -5.3912   -3.3802 O   0  0  0  0  0  0  0  0  0  0  0  0
    0.5156   -5.2500   -1.9556 O   0  0  0  0  0  0  0  0  0  0  0  0
    2.3563   -3.6400   -0.4508 O   0  0  0  0  0  0  0  0  0  0  0  0
    3.7430   -4.2530   -0.2416 S   0  0  0  0  0  0  0  0  0  0  0  0
    4.1318   -5.3522   -1.6260 C   0  0  0  0  0  0  0  0  0  0  0  0
    4.9788   -2.9335   -0.1534 C   0  0  0  0  0  0  0  0  0  0  0  0
    0.6225    0.6232    0.8582 H   0  0  0  0  0  0  0  0  0  0  0  0
    0.6225    0.3023   -0.8594 H   0  0  0  0  0  0  0  0  0  0  0  0
    2.0491   -0.0331    0.0920 H   0  0  0  0  0  0  0  0  0  0  0  0
   -1.7909   -1.3751   -0.5460 H   0  0  0  0  0  0  0  0  0  0  0  0
   -1.7909   -2.7022    0.5906 H   0  0  0  0  0  0  0  0  0  0  0  0
   -1.7909   -1.0543    1.1716 H   0  0  0  0  0  0  0  0  0  0  0  0
   -1.8870   -5.5366    5.5200 H   0  0  0  0  0  0  0  0  0  0  0  0
   -1.0925   -4.4325    6.6167 H   0  0  0  0  0  0  0  0  0  0  0  0
    0.7973   -4.6920    4.6463 H   0  0  0  0  0  0  0  0  0  0  0  0
    0.6878   -2.7288    5.3235 H   0  0  0  0  0  0  0  0  0  0  0  0
    1.5088   -3.5331    4.0057 H   0  0  0  0  0  0  0  0  0  0  0  0
   -0.5269   -1.5251    3.8756 H   0  0  0  0  0  0  0  0  0  0  0  0
   -1.1096   -2.9853    3.1109 H   0  0  0  0  0  0  0  0  0  0  0  0
    1.0594   -1.2779    2.4983 H   0  0  0  0  0  0  0  0  0  0  0  0
    0.0178   -2.8155    0.2561 H   0  0  0  0  0  0  0  0  0  0  0  0
   -0.2372   -3.9895    1.5255 H   0  0  0  0  0  0  0  0  0  0  0  0
    2.3031   -4.1018    1.7231 H   0  0  0  0  0  0  0  0  0  0  0  0
    2.3551   -3.2285    0.2074 H   0  0  0  0  0  0  0  0  0  0  0  0
    2.0056   -4.5316   -0.5649 H   0  0  0  0  0  0  0  0  0  0  0  0
    2.6826   -6.5343    1.2803 H   0  0  0  0  0  0  0  0  0  0  0  0
    1.3174   -7.2847    0.4763 H   0  0  0  0  0  0  0  0  0  0  0  0
   -0.2278   -6.2563    1.9813 H   0  0  0  0  0  0  0  0  0  0  0  0
    1.0132   -5.2213    2.6442 H   0  0  0  0  0  0  0  0  0  0  0  0
    1.6867   -8.0245    3.6861 H   0  0  0  0  0  0  0  0  0  0  0  0
    0.5537   -7.7863    5.2633 H   0  0  0  0  0  0  0  0  0  0  0  0
   -0.6917   -6.9826    4.3342 H   0  0  0  0  0  0  0  0  0  0  0  0
    1.7528   -5.4104    4.8275 H   0  0  0  0  0  0  0  0  0  0  0  0
    0.7665   -5.7379    6.2339 H   0  0  0  0  0  0  0  0  0  0  0  0
    0.4562   -7.4973   -4.2510 H   0  0  0  0  0  0  0  0  0  0  0  0
    1.0864   -6.4833   -2.9752 H   0  0  0  0  0  0  0  0  0  0  0  0
    3.2681   -4.5339   -1.0665 H   0  0  0  0  0  0  0  0  0  0  0  0
    3.1034   -6.2454   -0.9911 H   0  0  0  0  0  0  0  0  0  0  0  0
    4.1227   -4.7935   -2.5385 H   0  0  0  0  0  0  0  0  0  0  0  0
    5.1012   -5.7808   -1.4798 H   0  0  0  0  0  0  0  0  0  0  0  0
    3.4012   -6.1322   -1.6782 H   0  0  0  0  0  0  0  0  0  0  0  0
    4.9698   -2.3748   -1.0659 H   0  0  0  0  0  0  0  0  0  0  0  0
    4.7490   -2.2837    0.6650 H   0  0  0  0  0  0  0  0  0  0  0  0
    5.9483   -3.3621   -0.0072 H   0  0  0  0  0  0  0  0  0  0  0  0
  1  2  1  0  0  0  0
  1 34  1  0  0  0  0
  1 35  1  0  0  0  0
  1 36  1  0  0  0  0
  2  3  1  0  0  0  0
  2  4  2  0  0  0  0
  3 37  1  0  0  0  0
  3 38  1  0  0  0  0
  3 39  1  0  0  0  0
  4  5  1  0  0  0  0
  5  6  1  0  0  0  0
  5 10  1  0  0  0  0
  5 13  1  0  0  0  0
  5 16  1  0  0  0  0
  5 19  1  0  0  0  0
  5 25  1  0  0  0  0
  5 29  1  0  0  0  0
  5 30  1  0  0  0  0
  6  7  1  0  0  0  0
  7  8  2  0  0  0  0
  7  9  1  0  0  0  0
  9 10  1  0  0  0  0
  9 40  1  0  0  0  0
  9 41  1  0  0  0  0
 10 11  1  0  0  0  0
 10 21  1  0  0  0  0
 10 42  1  0  0  0  0
 11 12  1  0  0  0  0
 11 43  1  0  0  0  0
 11 44  1  0  0  0  0
 12 13  1  0  0  0  0
 12 45  1  0  0  0  0
 12 46  1  0  0  0  0
 13 14  1  0  0  0  0
 13 47  1  0  0  0  0
 14 15  1  0  0  0  0
 14 48  1  0  0  0  0
 14 49  1  0  0  0  0
 15 16  1  0  0  0  0
 15 50  1  0  0  0  0
 15 51  1  0  0  0  0
 16 17  1  0  0  0  0
 16 26  1  0  0  0  0
 16 52  1  0  0  0  0
 17 18  1  0  0  0  0
 17 53  1  0  0  0  0
 17 54  1  0  0  0  0
 18 19  1  0  0  0  0
 18 55  1  0  0  0  0
 18 56  1  0  0  0  0
 19 20  1  0  0  0  0
 19 22  1  0  0  0  0
 19 57  1  0  0  0  0
 20 21  1  0  0  0  0
 20 58  1  0  0  0  0
 20 59  1  0  0  0  0
 21 60  1  0  0  0  0
 21 61  1  0  0  0  0
 22 23  1  0  0  0  0
 22 62  1  0  0  0  0
 22 63  1  0  0  0  0
 23 24  2  0  0  0  0
 23 25  1  0  0  0  0
 26 27  1  0  0  0  0
 26 64  1  0  0  0  0
 26 65  1  0  0  0  0
 27 28  2  0  0  0  0
 27 29  1  0  0  0  0
 30 31  2  0  0  0  0
 31 32  1  0  0  0  0
 31 33  1  0  0  0  0
 32 66  1  0  0  0  0
 32 67  1  0  0  0  0
 32 68  1  0  0  0  0
 33 69  1  0  0  0  0
 33 70  1  0  0  0  0
 33 71  1  0  0  0  0
M  CHG  1   5   1
M  END
$$$$
