
     RDKit          3D

 57 60  0  0  0  0  0  0  0  0999 V2000
    4.9884    0.8257   -1.0573 C   0  0  0  0  0  0  0  0  0  0  0  0
    3.6620    0.3712   -1.2748 O   0  0  0  0  0  0  0  0  0  0  0  0
    3.1961    0.3634   -2.5655 C   0  0  0  0  0  0  0  0  0  0  0  0
    3.9500    0.7339   -3.6854 C   0  0  0  0  0  0  0  0  0  0  0  0
    3.3883    0.6889   -4.9658 C   0  0  0  0  0  0  0  0  0  0  0  0
    2.0700    0.2749   -5.1402 C   0  0  0  0  0  0  0  0  0  0  0  0
    1.3089   -0.0959   -4.0333 C   0  0  0  0  0  0  0  0  0  0  0  0
    1.8655   -0.0540   -2.7491 C   0  0  0  0  0  0  0  0  0  0  0  0
    1.0450   -0.4363   -1.6374 C   0  0  0  0  0  0  0  0  0  0  0  0
    0.3532   -0.7367   -0.7008 C   0  0  0  0  0  0  0  0  0  0  0  0
   -0.4749   -1.0700    0.4256 C   0  0  0  0  0  0  0  0  0  0  0  0
   -1.5757   -0.3427    0.7328 C   0  0  0  0  0  0  0  0  0  0  0  0
   -1.8921    0.7310   -0.2191 N   0  0  0  0  0  0  0  0  0  0  0  0
   -1.1367    1.9578   -0.0357 C   0  0  0  0  0  0  0  0  0  0  0  0
   -0.8747    2.5268    1.2179 C   0  0  0  0  0  0  0  0  0  0  0  0
   -0.1874    3.7407    1.3083 C   0  0  0  0  0  0  0  0  0  0  0  0
    0.2226    4.4006    0.1504 C   0  0  0  0  0  0  0  0  0  0  0  0
   -0.0632    3.8560   -1.1007 C   0  0  0  0  0  0  0  0  0  0  0  0
   -0.7531    2.6459   -1.1921 C   0  0  0  0  0  0  0  0  0  0  0  0
   -3.6093    0.9474   -0.1616 S   0  0  0  0  0  0  0  0  0  0  0  0
   -3.9787    2.3381   -0.0168 O   0  0  0  0  0  0  0  0  0  0  0  0
   -4.2390    0.0646   -1.1218 O   0  0  0  0  0  0  0  0  0  0  0  0
   -3.7932    0.1856    1.3996 C   0  0  0  0  0  0  0  0  0  0  0  0
   -4.9231    0.2978    2.1988 C   0  0  0  0  0  0  0  0  0  0  0  0
   -4.8803   -0.2953    3.4556 C   0  0  0  0  0  0  0  0  0  0  0  0
   -3.7163   -0.9497    3.8783 C   0  0  0  0  0  0  0  0  0  0  0  0
   -2.5864   -1.0254    3.0468 C   0  0  0  0  0  0  0  0  0  0  0  0
   -2.6229   -0.4751    1.7715 C   0  0  0  0  0  0  0  0  0  0  0  0
    0.1978   -2.6261    1.2574 Si  0  0  0  0  0  4  0  0  0  0  0  0
    1.0911   -2.1778    2.8491 C   0  0  0  0  0  0  0  0  0  0  0  0
   -1.1470   -3.9025    1.5516 C   0  0  0  0  0  0  0  0  0  0  0  0
    1.4832   -3.4945    0.1507 C   0  0  0  0  0  0  0  0  0  0  0  0
    5.1079    1.8671   -1.3728 H   0  0  0  0  0  0  0  0  0  0  0  0
    5.7153    0.1751   -1.5535 H   0  0  0  0  0  0  0  0  0  0  0  0
    5.1850    0.7801    0.0189 H   0  0  0  0  0  0  0  0  0  0  0  0
    4.9806    1.0618   -3.5977 H   0  0  0  0  0  0  0  0  0  0  0  0
    3.9836    0.9781   -5.8283 H   0  0  0  0  0  0  0  0  0  0  0  0
    1.6350    0.2410   -6.1356 H   0  0  0  0  0  0  0  0  0  0  0  0
    0.2790   -0.4173   -4.1729 H   0  0  0  0  0  0  0  0  0  0  0  0
   -1.1963    2.0454    2.1350 H   0  0  0  0  0  0  0  0  0  0  0  0
    0.0235    4.1748    2.2827 H   0  0  0  0  0  0  0  0  0  0  0  0
    0.7582    5.3441    0.2220 H   0  0  0  0  0  0  0  0  0  0  0  0
    0.2478    4.3719   -2.0048 H   0  0  0  0  0  0  0  0  0  0  0  0
   -0.9754    2.2287   -2.1705 H   0  0  0  0  0  0  0  0  0  0  0  0
   -5.8008    0.8374    1.8573 H   0  0  0  0  0  0  0  0  0  0  0  0
   -5.7420   -0.2367    4.1174 H   0  0  0  0  0  0  0  0  0  0  0  0
   -3.6825   -1.3927    4.8726 H   0  0  0  0  0  0  0  0  0  0  0  0
   -1.6989   -1.5032    3.4425 H   0  0  0  0  0  0  0  0  0  0  0  0
    0.4695   -1.5834    3.5204 H   0  0  0  0  0  0  0  0  0  0  0  0
    1.9905   -1.5965    2.6275 H   0  0  0  0  0  0  0  0  0  0  0  0
    1.3951   -3.0849    3.3807 H   0  0  0  0  0  0  0  0  0  0  0  0
   -1.9573   -3.5325    2.1834 H   0  0  0  0  0  0  0  0  0  0  0  0
   -1.5814   -4.2197    0.5969 H   0  0  0  0  0  0  0  0  0  0  0  0
   -0.7225   -4.7874    2.0382 H   0  0  0  0  0  0  0  0  0  0  0  0
    1.0419   -3.7533   -0.8159 H   0  0  0  0  0  0  0  0  0  0  0  0
    1.8242   -4.4153    0.6331 H   0  0  0  0  0  0  0  0  0  0  0  0
    2.3522   -2.8506   -0.0137 H   0  0  0  0  0  0  0  0  0  0  0  0
  1  2  1  0
  2  3  1  0
  3  4  2  0
  4  5  1  0
  5  6  2  0
  6  7  1  0
  7  8  2  0
  8  9  1  0
  9 10  3  0
 10 11  1  0
 11 12  2  3
 12 13  1  0
 13 14  1  0
 14 15  2  0
 15 16  1  0
 16 17  2  0
 17 18  1  0
 18 19  2  0
 13 20  1  0
 20 21  2  0
 20 22  2  0
 20 23  1  0
 23 24  2  0
 24 25  1  0
 25 26  2  0
 26 27  1  0
 27 28  2  0
 11 29  1  0
 29 30  1  0
 29 31  1  0
 29 32  1  0
  8  3  1  0
 28 12  1  0
 19 14  1  0
 28 23  1  0
  1 33  1  0
  1 34  1  0
  1 35  1  0
  4 36  1  0
  5 37  1  0
  6 38  1  0
  7 39  1  0
 15 40  1  0
 16 41  1  0
 17 42  1  0
 18 43  1  0
 19 44  1  0
 24 45  1  0
 25 46  1  0
 26 47  1  0
 27 48  1  0
 30 49  1  0
 30 50  1  0
 30 51  1  0
 31 52  1  0
 31 53  1  0
 31 54  1  0
 32 55  1  0
 32 56  1  0
 32 57  1  0
M  END
