
 OpenBabel09252516363D

 68 74  0  0  1  0  0  0  0  0999 V2000
    1.0616    0.0770    0.0168 H   0  0  0  0  0  0  0  0  0  0  0  0
    2.1316    0.0770    0.0168 C   0  0  0  0  0  0  0  0  0  0  0  0
    2.4882   -0.1078    1.0086 H   0  0  0  0  0  0  0  0  0  0  0  0
    2.4882   -0.6895   -0.6391 H   0  0  0  0  0  0  0  0  0  0  0  0
    2.7349    1.6861   -0.5514 S   0  0  0  0  0  0  0  0  0  0  0  0
    2.2247    2.7825    0.3868 O   0  0  0  0  0  0  0  0  0  0  0  0
   -0.3512    3.1462    0.6980 U   0  3  0  0  0  0  0  0  0  0  0  0
   -1.2696    1.1541    2.1306 O   0  0  0  0  0  0  0  0  0  0  0  0
   -0.8538   -0.2647    1.7354 S   0  0  0  0  0  0  0  0  0  0  0  0
    0.9524   -0.3793    1.7109 C   0  0  0  0  0  0  0  0  0  0  0  0
    1.3374   -0.1526    2.6831 H   0  0  0  0  0  0  0  0  0  0  0  0
    1.2432   -1.3713    1.4346 H   0  0  0  0  0  0  0  0  0  0  0  0
    1.3445    0.3182    1.0004 H   0  0  0  0  0  0  0  0  0  0  0  0
   -1.5169   -1.4446    2.9371 C   0  0  0  0  0  0  0  0  0  0  0  0
   -1.1319   -1.2179    3.9094 H   0  0  0  0  0  0  0  0  0  0  0  0
   -2.5847   -1.3769    2.9516 H   0  0  0  0  0  0  0  0  0  0  0  0
   -1.2262   -2.4366    2.6608 H   0  0  0  0  0  0  0  0  0  0  0  0
   -2.1034    3.9376    2.4779 O   0  0  0  0  0  0  0  0  0  0  0  0
   -1.9587    3.5522    3.8369 C   0  0  0  0  0  0  0  0  0  0  0  0
   -1.6657    2.3169    3.7770 O   0  0  0  0  0  0  0  0  0  0  0  0
    0.0444    4.7417    6.2138 C   0  0  0  0  0  0  0  0  0  0  0  0
    0.3358    4.7340    7.2433 H   0  0  0  0  0  0  0  0  0  0  0  0
    0.4291    4.9577    7.1885 H   0  0  0  0  0  0  0  0  0  0  0  0
    0.1048    5.0395    4.7755 N   0  0  1  0  0  4  0  0  0  0  0  0
    0.6815    6.4404    4.9881 C   0  0  0  0  0  0  0  0  0  0  0  0
    1.4907    6.5859    5.6729 H   0  0  0  0  0  0  0  0  0  0  0  0
    1.4817    6.6837    4.3208 H   0  0  0  0  0  0  0  0  0  0  0  0
   -0.3617    7.4920    4.6082 C   0  0  0  0  0  0  0  0  0  0  0  0
   -0.7507    7.8913    5.5215 H   0  0  0  0  0  0  0  0  0  0  0  0
   -1.3735    7.5034    4.2603 H   0  0  0  0  0  0  0  0  0  0  0  0
   -0.1171    7.9650    3.1740 N   0  0  1  0  0  4  0  0  0  0  0  0
   -1.1499    6.6739    0.6273 C   0  0  0  0  0  0  0  0  0  0  0  0
   -0.2240    6.7018    0.0917 H   0  0  0  0  0  0  0  0  0  0  0  0
   -1.6595    6.6546   -0.3134 H   0  0  0  0  0  0  0  0  0  0  0  0
   -2.3808    6.0108    1.2235 C   0  0  0  0  0  0  0  0  0  0  0  0
   -3.3596    6.3086    0.4695 O   0  0  0  0  0  0  0  0  0  0  0  0
   -2.4131    4.6022    1.4001 O   0  0  0  0  0  0  0  0  0  0  0  0
   -1.4565    8.1441    2.4585 C   0  0  0  0  0  0  0  0  0  0  0  0
   -2.1400    8.5531    3.1730 H   0  0  0  0  0  0  0  0  0  0  0  0
   -2.3783    7.7544    2.0798 H   0  0  0  0  0  0  0  0  0  0  0  0
   -1.2609    7.9746    0.9510 C   0  0  0  0  0  0  0  0  0  0  0  0
   -0.7205    8.8742    0.7424 H   0  0  0  0  0  0  0  0  0  0  0  0
   -0.8171    7.5256    0.0871 H   0  0  0  0  0  0  0  0  0  0  0  0
   -2.1925    6.8783    0.4326 N   0  0  2  0  0  4  0  0  0  0  0  0
   -3.0068    7.4469    0.2000 H   0  0  0  0  0  0  0  0  0  0  0  0
   -1.4754    5.5276    0.4806 C   0  0  0  0  0  0  0  0  0  0  0  0
   -0.7376    4.7564    0.4048 H   0  0  0  0  0  0  0  0  0  0  0  0
   -1.0226    6.2296   -0.1880 H   0  0  0  0  0  0  0  0  0  0  0  0
   -2.2853    4.5480    1.3338 C   0  0  0  0  0  0  0  0  0  0  0  0
   -3.2508    4.2255    1.6635 H   0  0  0  0  0  0  0  0  0  0  0  0
   -2.6944    5.5360    1.3732 H   0  0  0  0  0  0  0  0  0  0  0  0
   -1.4260    3.3335    1.6872 N   0  0  1  0  0  4  0  0  0  0  0  0
   -2.2434    2.0603    1.5653 C   0  0  0  0  0  0  0  0  0  0  0  0
   -2.8960    1.4000    2.0973 H   0  0  0  0  0  0  0  0  0  0  0  0
   -3.0170    2.7235    1.8918 H   0  0  0  0  0  0  0  0  0  0  0  0
   -1.6619    1.3458    0.5828 C   0  0  0  0  0  0  0  0  0  0  0  0
   -2.5017    1.1761   -0.3559 O   0  0  0  0  0  0  0  0  0  0  0  0
   -0.5834    1.9673    0.0930 O   0  0  0  0  0  0  0  0  0  0  0  0
   -0.8512    3.4555    3.0990 C   0  0  0  0  0  0  0  0  0  0  0  0
   -0.8061    2.6705    3.8247 H   0  0  0  0  0  0  0  0  0  0  0  0
   -1.4050    2.9257    3.8457 H   0  0  0  0  0  0  0  0  0  0  0  0
   -0.2061    4.8284    3.2919 C   0  0  0  0  0  0  0  0  0  0  0  0
    0.5391    5.5838    3.4297 H   0  0  0  0  0  0  0  0  0  0  0  0
   -0.6774    4.8816    2.3327 H   0  0  0  0  0  0  0  0  0  0  0  0
    4.5449    1.6861   -0.5514 C   0  0  0  0  0  0  0  0  0  0  0  0
    4.9015    1.5014    0.4404 H   0  0  0  0  0  0  0  0  0  0  0  0
    4.9015    0.9196   -1.2072 H   0  0  0  0  0  0  0  0  0  0  0  0
    4.9015    2.6374   -0.8872 H   0  0  0  0  0  0  0  0  0  0  0  0
  1  2  1  0  0  0  0
  2  3  1  0  0  0  0
  2  4  1  0  0  0  0
  2  5  1  0  0  0  0
  5  6  2  0  0  0  0
  5 65  1  0  0  0  0
  6  7  1  0  0  0  0
  7 18  1  0  0  0  0
  7 24  1  0  0  0  0
  7 31  1  0  0  0  0
  7 37  1  0  0  0  0
  7 44  1  0  0  0  0
  7 52  1  0  0  0  0
  7 58  1  0  0  0  0
  7  8  1  0  0  0  0
  8  9  2  0  0  0  0
  9 10  1  0  0  0  0
  9 14  1  0  0  0  0
 10 11  1  0  0  0  0
 10 12  1  0  0  0  0
 10 13  1  0  0  0  0
 14 15  1  0  0  0  0
 14 16  1  0  0  0  0
 14 17  1  0  0  0  0
 18 19  1  0  0  0  0
 19 21  1  0  0  0  0
 19 20  2  0  0  0  0
 21 22  1  0  0  0  0
 21 23  1  0  0  0  0
 24 21  1  1  0  0  0
 24 25  1  0  0  0  0
 24 62  1  0  0  0  0
 25 28  1  0  0  0  0
 25 26  1  0  0  0  0
 25 27  1  0  0  0  0
 28 29  1  0  0  0  0
 28 30  1  0  0  0  0
 31 28  1  1  0  0  0
 31 32  1  0  0  0  0
 31 38  1  0  0  0  0
 32 35  1  0  0  0  0
 32 33  1  0  0  0  0
 32 34  1  0  0  0  0
 35 37  1  0  0  0  0
 35 36  2  0  0  0  0
 38 41  1  0  0  0  0
 38 39  1  0  0  0  0
 38 40  1  0  0  0  0
 41 44  1  0  0  0  0
 41 42  1  0  0  0  0
 41 43  1  0  0  0  0
 44 46  1  0  0  0  0
 44 45  1  1  0  0  0
 46 49  1  0  0  0  0
 46 47  1  0  0  0  0
 46 48  1  0  0  0  0
 49 50  1  0  0  0  0
 49 51  1  0  0  0  0
 52 49  1  6  0  0  0
 52 53  1  0  0  0  0
 52 59  1  0  0  0  0
 53 56  1  0  0  0  0
 53 54  1  0  0  0  0
 53 55  1  0  0  0  0
 56 58  1  0  0  0  0
 56 57  2  0  0  0  0
 59 62  1  0  0  0  0
 59 60  1  0  0  0  0
 59 61  1  0  0  0  0
 62 63  1  0  0  0  0
 62 64  1  0  0  0  0
 65 66  1  0  0  0  0
 65 67  1  0  0  0  0
 65 68  1  0  0  0  0
M  CHG  1   7   1
M  END
$$$$
