
     RDKit          3D

 57 60  0  0  0  0  0  0  0  0999 V2000
    4.7646   -2.5902   -1.4401 C   0  0  0  0  0  0  0  0  0  0  0  0
    3.8929   -1.7349   -0.7129 O   0  0  0  0  0  0  0  0  0  0  0  0
    4.3919   -1.1301    0.4136 C   0  0  0  0  0  0  0  0  0  0  0  0
    5.6613   -1.3741    0.9502 C   0  0  0  0  0  0  0  0  0  0  0  0
    6.0817   -0.7113    2.1082 C   0  0  0  0  0  0  0  0  0  0  0  0
    5.2398    0.2000    2.7412 C   0  0  0  0  0  0  0  0  0  0  0  0
    3.9726    0.4505    2.2180 C   0  0  0  0  0  0  0  0  0  0  0  0
    3.5455   -0.2109    1.0597 C   0  0  0  0  0  0  0  0  0  0  0  0
    2.2343    0.0739    0.5546 C   0  0  0  0  0  0  0  0  0  0  0  0
    1.1358    0.3081    0.1261 C   0  0  0  0  0  0  0  0  0  0  0  0
   -0.1625    0.5877   -0.4079 C   0  0  0  0  0  0  0  0  0  0  0  0
   -1.2273    0.8028    0.3947 C   0  0  0  0  0  0  0  0  0  0  0  0
   -2.4966    1.1607   -0.2300 N   0  0  0  0  0  0  0  0  0  0  0  0
   -3.3262    0.0352   -0.6437 C   0  0  0  0  0  0  0  0  0  0  0  0
   -4.2686    0.2765   -1.6522 C   0  0  0  0  0  0  0  0  0  0  0  0
   -5.1399   -0.7312   -2.0694 C   0  0  0  0  0  0  0  0  0  0  0  0
   -5.0908   -1.9861   -1.4672 C   0  0  0  0  0  0  0  0  0  0  0  0
   -4.1800   -2.2293   -0.4409 C   0  0  0  0  0  0  0  0  0  0  0  0
   -3.3085   -1.2204   -0.0210 C   0  0  0  0  0  0  0  0  0  0  0  0
   -3.3009    2.1894    0.9383 S   0  0  0  0  0  0  0  0  0  0  0  0
   -2.8883    3.5605    0.7223 O   0  0  0  0  0  0  0  0  0  0  0  0
   -4.6844    1.8112    1.1290 O   0  0  0  0  0  0  0  0  0  0  0  0
   -2.3875    1.5988    2.3044 C   0  0  0  0  0  0  0  0  0  0  0  0
   -2.7382    1.7734    3.6345 C   0  0  0  0  0  0  0  0  0  0  0  0
   -1.9225    1.1809    4.5935 C   0  0  0  0  0  0  0  0  0  0  0  0
   -0.8101    0.4233    4.1992 C   0  0  0  0  0  0  0  0  0  0  0  0
   -0.4972    0.2534    2.8420 C   0  0  0  0  0  0  0  0  0  0  0  0
   -1.2872    0.8634    1.8741 C   0  0  0  0  0  0  0  0  0  0  0  0
   -0.0780    0.6866   -2.3072 Si  0  0  0  0  0  4  0  0  0  0  0  0
   -0.7075   -0.9105   -3.0689 C   0  0  0  0  0  0  0  0  0  0  0  0
    1.7164    0.9158   -2.8870 C   0  0  0  0  0  0  0  0  0  0  0  0
   -1.0367    2.1607   -2.9691 C   0  0  0  0  0  0  0  0  0  0  0  0
    4.2240   -2.9459   -2.3227 H   0  0  0  0  0  0  0  0  0  0  0  0
    5.6511   -2.0493   -1.7883 H   0  0  0  0  0  0  0  0  0  0  0  0
    5.0417   -3.4671   -0.8454 H   0  0  0  0  0  0  0  0  0  0  0  0
    6.3497   -2.0774    0.4936 H   0  0  0  0  0  0  0  0  0  0  0  0
    7.0705   -0.9085    2.5158 H   0  0  0  0  0  0  0  0  0  0  0  0
    5.5700    0.7160    3.6394 H   0  0  0  0  0  0  0  0  0  0  0  0
    3.3200    1.1656    2.7143 H   0  0  0  0  0  0  0  0  0  0  0  0
   -4.3302    1.2576   -2.1172 H   0  0  0  0  0  0  0  0  0  0  0  0
   -5.8629   -0.5317   -2.8560 H   0  0  0  0  0  0  0  0  0  0  0  0
   -5.7722   -2.7703   -1.7883 H   0  0  0  0  0  0  0  0  0  0  0  0
   -4.1535   -3.2036    0.0408 H   0  0  0  0  0  0  0  0  0  0  0  0
   -2.6253   -1.4433    0.7920 H   0  0  0  0  0  0  0  0  0  0  0  0
   -3.6179    2.3447    3.9137 H   0  0  0  0  0  0  0  0  0  0  0  0
   -2.1549    1.2922    5.6502 H   0  0  0  0  0  0  0  0  0  0  0  0
   -0.1892   -0.0522    4.9562 H   0  0  0  0  0  0  0  0  0  0  0  0
    0.3452   -0.3770    2.5774 H   0  0  0  0  0  0  0  0  0  0  0  0
   -0.5411   -0.9068   -4.1505 H   0  0  0  0  0  0  0  0  0  0  0  0
   -0.1809   -1.7719   -2.6471 H   0  0  0  0  0  0  0  0  0  0  0  0
   -1.7771   -1.0449   -2.8957 H   0  0  0  0  0  0  0  0  0  0  0  0
    2.1575    1.8055   -2.4284 H   0  0  0  0  0  0  0  0  0  0  0  0
    2.3230    0.0436   -2.6276 H   0  0  0  0  0  0  0  0  0  0  0  0
    1.7432    1.0388   -3.9740 H   0  0  0  0  0  0  0  0  0  0  0  0
   -0.7582    3.0736   -2.4343 H   0  0  0  0  0  0  0  0  0  0  0  0
   -2.1148    2.0199   -2.8734 H   0  0  0  0  0  0  0  0  0  0  0  0
   -0.8156    2.3088   -4.0305 H   0  0  0  0  0  0  0  0  0  0  0  0
  1  2  1  0
  2  3  1  0
  3  4  2  0
  4  5  1  0
  5  6  2  0
  6  7  1  0
  7  8  2  0
  8  9  1  0
  9 10  3  0
 10 11  1  0
 11 12  2  3
 12 13  1  0
 13 14  1  0
 14 15  2  0
 15 16  1  0
 16 17  2  0
 17 18  1  0
 18 19  2  0
 13 20  1  0
 20 21  2  0
 20 22  2  0
 20 23  1  0
 23 24  2  0
 24 25  1  0
 25 26  2  0
 26 27  1  0
 27 28  2  0
 11 29  1  0
 29 30  1  0
 29 31  1  0
 29 32  1  0
  8  3  1  0
 28 12  1  0
 19 14  1  0
 28 23  1  0
  1 33  1  0
  1 34  1  0
  1 35  1  0
  4 36  1  0
  5 37  1  0
  6 38  1  0
  7 39  1  0
 15 40  1  0
 16 41  1  0
 17 42  1  0
 18 43  1  0
 19 44  1  0
 24 45  1  0
 25 46  1  0
 26 47  1  0
 27 48  1  0
 30 49  1  0
 30 50  1  0
 30 51  1  0
 31 52  1  0
 31 53  1  0
 31 54  1  0
 32 55  1  0
 32 56  1  0
 32 57  1  0
M  END
