
 OpenBabel09252516253D

 23 24  0  0  1  0  0  0  0  0999 V2000
    9.9998   -1.0300   -7.7341 H   0  0  0  0  0  0  0  0  0  0  0  0
    9.3968   -0.4397   -7.0537 C   0  0  0  0  0  3  0  0  0  0  0  0
    9.9127   -0.1127   -5.7342 C   0  0  0  0  0  3  0  0  0  0  0  0
   10.9050   -0.4538   -5.4595 H   0  0  0  0  0  0  0  0  0  0  0  0
    9.0005    0.3257   -4.6829 C   0  0  0  0  0  3  0  0  0  0  0  0
    9.3664    0.3293   -3.6602 H   0  0  0  0  0  0  0  0  0  0  0  0
    7.5419    0.3484   -4.9238 C   0  0  0  0  0  3  0  0  0  0  0  0
    6.5194   -0.2593   -3.6102 S   0  0  0  0  0  0  0  0  0  0  0  0
    6.3319   -1.6868   -3.8238 O   0  0  0  0  0  0  0  0  0  0  0  0
    7.1151    0.1824   -2.3563 O   0  0  0  0  0  0  0  0  0  0  0  0
    4.9057    0.5212   -3.6983 C   0  0  2  0  0  0  0  0  0  0  0  0
    4.2122    0.0760   -2.9754 H   0  0  0  0  0  0  0  0  0  0  0  0
    4.3701    0.4494   -5.0691 N   0  0  0  0  0  0  0  0  0  0  0  0
    3.7627   -0.2517   -5.4745 H   0  0  0  0  0  0  0  0  0  0  0  0
    3.9631    1.7481   -5.0533 C   0  0  0  0  0  0  0  0  0  0  0  0
    3.1710    2.3231   -5.7552 O   0  0  0  0  0  0  0  0  0  0  0  0
    4.8289    2.0463   -3.8122 C   0  0  0  0  0  0  0  0  0  0  0  0
    4.2898    2.5375   -2.9983 H   0  0  0  0  0  0  0  0  0  0  0  0
    5.7533    2.5832   -4.0344 H   0  0  0  0  0  0  0  0  0  0  0  0
    7.0981    0.2809   -6.3234 C   0  0  0  0  0  3  0  0  0  0  0  0
    6.2376    0.8486   -6.6528 H   0  0  0  0  0  0  0  0  0  0  0  0
    7.9959   -0.2131   -7.3569 C   0  0  0  0  0  3  0  0  0  0  0  0
    7.6094   -0.4410   -8.3430 H   0  0  0  0  0  0  0  0  0  0  0  0
  1  2  1  0  0  0  0
  2  3  1  0  0  0  0
  2 22  1  0  0  0  0
  3  4  1  0  0  0  0
  3  5  1  0  0  0  0
  5  6  1  0  0  0  0
  5  7  1  0  0  0  0
  7  8  1  0  0  0  0
  7 20  1  0  0  0  0
  8  9  2  0  0  0  0
  8 10  2  0  0  0  0
 11 13  1  0  0  0  0
 11 17  1  0  0  0  0
 11 12  1  1  0  0  0
 11  8  1  0  0  0  0
 13 14  1  0  0  0  0
 13 15  1  0  0  0  0
 15 16  2  0  0  0  0
 15 17  1  0  0  0  0
 17 18  1  0  0  0  0
 17 19  1  0  0  0  0
 20 21  1  0  0  0  0
 20 22  1  0  0  0  0
 22 23  1  0  0  0  0
M  END
$$$$
