
  --CCDC--092525    3D                              

 53 64  0  0  0  0  0  0  0  0999 V2000
    3.9766   -0.7500    3.7394 C      0
    4.2406   -0.4867    2.3318 C      0
    4.3966   -0.2720    1.2223 N      0
    4.6390    0.0734   -0.8754 Ru     3
    2.7085   -1.6525   -0.2740 Br     0
    0.9152   -1.2357   -2.1882 Ru     0
    0.0266   -2.0831   -0.4356 C      0
   -0.4469   -2.5331    0.4983 O      0
    1.4489   -3.2971   -1.9766 N      0
    1.7710   -4.3843   -1.8497 C      0
    2.1929   -5.7613   -1.6343 C      0
   -0.6505   -0.9492   -3.4006 C      0
   -0.3588    0.3420   -2.3841 C      0
    1.2670    0.7158   -2.4652 C      0
    2.0624    1.5751   -1.4910 C      0
    1.6708    3.0160   -1.8108 C      0
    1.6428    1.5023   -0.0210 C      0
    3.5596    1.5058   -1.7512 C      0
    4.7650    2.0859   -0.7459 C      0
    6.2033    1.3060   -1.1136 C      0
    5.8902    0.3295   -2.4411 C      0
    4.2609    0.4229   -2.8084 C      0
    3.4644   -0.5657   -3.6500 C      0
    3.8902   -0.3422   -5.0993 C      0
    3.8496   -2.0339   -3.4619 C      0
    1.9704   -0.2771   -3.6064 C      0
    0.7740   -1.2804   -4.1977 C      0
    5.4195   -1.8424   -0.3278 C      0
    5.8351   -2.8627   -0.0362 O      0
    2.9083   -0.8624    3.9131 H      0
    4.3367    0.0666    4.3612 H      0
    4.4686   -1.6659    4.0597 H      0
    2.1911   -6.3177   -2.5690 H      0
    1.5278   -6.2649   -0.9361 H      0
    3.2003   -5.7932   -1.2238 H      0
   -1.3162   -1.7684   -3.0876 H      0
   -0.5533    1.0416   -3.2116 H      0
    0.6090    3.1752   -1.6347 H      0
    1.8814    3.2520   -2.8518 H      0
    2.2257    3.7132   -1.1863 H      0
    0.8196    0.8014    0.1003 H      0
    1.2970    2.4771    0.3166 H      0
    2.4347    1.1929    0.6460 H      0
    5.0004    2.8643   -1.4883 H      0
    6.4424    2.1240   -1.8108 H      0
    6.0812    1.1825   -3.1106 H      0
    3.3521   -1.0132   -5.7658 H      0
    4.9554   -0.5270   -5.2213 H      0
    3.6850    0.6801   -5.4099 H      0
    3.0158   -2.6789   -3.7314 H      0
    4.1385   -2.2768   -2.4493 H      0
    4.6857   -2.2876   -4.1101 H      0
    1.0217   -2.3285   -4.4261 H      0
  1  2  1
  2  3  3
  3  4  1
  4  5  1
  5  6  1
  6  7  1
  7  8  3
  6  9  1
  9 10  3
 10 11  1
  6 12  1
 12 13  1
  6 13  1
 13 14  1
  6 14  1
 14 15  1
 15 16  1
 15 17  1
 15 18  1
  4 18  1
 18 19  1
  4 19  1
 19 20  1
  4 20  1
 20 21  1
  4 21  1
 21 22  1
  4 22  1
 18 22  1
 22 23  1
 23 24  1
 23 25  1
 23 26  1
  6 26  1
 14 26  1
 26 27  1
  6 27  1
 12 27  1
  4 28  1
 28 29  3
  1 30  1
  1 31  1
  1 32  1
 11 33  1
 11 34  1
 11 35  1
 12 36  1
 13 37  1
 16 38  1
 16 39  1
 16 40  1
 17 41  1
 17 42  1
 17 43  1
 19 44  1
 20 45  1
 21 46  1
 24 47  1
 24 48  1
 24 49  1
 25 50  1
 25 51  1
 25 52  1
 27 53  1
M  CHG  1   4   1
M  END
$$$$
