
  --CCDC--092525    3D                              

 46 54  0  0  0  0  0  0  0  0999 V2000
    0.3428    0.0654    0.0331 Cl     0
    1.1768    2.2875   -0.3238 Ir     0
    2.8779    1.1668    0.2054 C      0
    2.3162    1.6935    1.3002 C      0
    2.2152    1.8541    2.7701 C      0
    2.9765    1.6650    3.8960 C      0
    2.3620    1.8781    5.1259 C      0
    1.0402    2.2324    5.2332 C      0
    0.2319    2.4063    4.0800 C      0
   -1.1425    2.7245    4.0525 C      0
   -1.7771    2.8330    2.8489 C      0
   -1.1142    2.6630    1.6380 C      0
    0.2442    2.3626    1.5821 C      0
    0.8687    2.2285    2.8375 C      0
   -0.2881    2.7027   -1.5656 C      0
   -1.6455    2.0410   -1.6682 C      0
    0.0977    3.9406   -0.7468 C      0
   -0.3903    5.0187   -1.6887 C      0
    1.6141    4.1336   -0.8288 C      0
    2.4478    5.1037   -0.0216 C      0
    2.1288    3.1208   -1.8482 C      0
    3.5821    2.8838   -2.1948 C      0
    0.9675    2.2297   -2.2888 C      0
    1.0738    0.9893   -3.1477 C      0
    3.6701    0.5254   -0.1662 H      0
    4.0154    1.3593    3.8298 H      0
    2.9457    1.7525    6.0318 H      0
    0.6044    2.3753    6.2165 H      0
   -1.6899    2.8748    4.9771 H      0
   -2.8365    3.0669    2.8361 H      0
   -1.6772    2.7891    0.7228 H      0
   -1.7311    1.4785   -2.5955 H      0
   -1.8078    1.3554   -0.8395 H      0
   -2.4385    2.7857   -1.6499 H      0
   -0.8593    4.5801   -2.5670 H      0
    0.4363    5.6428   -2.0220 H      0
   -1.1211    5.6579   -1.1978 H      0
    1.8689    5.9881    0.2362 H      0
    3.3216    5.4233   -0.5856 H      0
    2.7908    4.6419    0.9019 H      0
    3.8035    3.2498   -3.1952 H      0
    3.8204    1.8228   -2.1636 H      0
    4.2350    3.3994   -1.4937 H      0
    0.1475    0.8161   -3.6915 H      0
    1.2766    0.1128   -2.5359 H      0
    1.8787    1.0901   -3.8728 H      0
  1  2  1
  2  3  1
  3  4  2
  2  4  1
  4  5  1
  5  6  4
  6  7  4
  7  8  4
  8  9  4
  9 10  4
 10 11  4
 11 12  4
 12 13  4
  2 13  1
 13 14  4
  5 14  4
  9 14  4
  2 15  1
 15 16  1
 15 17  4
  2 17  1
 17 18  1
 17 19  4
  2 19  1
 19 20  1
 19 21  4
  2 21  1
 21 22  1
 21 23  4
  2 23  1
 15 23  4
 23 24  1
  3 25  1
  6 26  1
  7 27  1
  8 28  1
 10 29  1
 11 30  1
 12 31  1
 16 32  1
 16 33  1
 16 34  1
 18 35  1
 18 36  1
 18 37  1
 20 38  1
 20 39  1
 20 40  1
 22 41  1
 22 42  1
 22 43  1
 24 44  1
 24 45  1
 24 46  1
M  END
$$$$
