
     RDKit          3D

  0  0  0  0  0  0  0  0  0  0999 V3000
M  V30 BEGIN CTAB
M  V30 COUNTS 47 52 0 0 0
M  V30 BEGIN ATOM
M  V30 1 C -3.204377 -0.310208 1.157689 0
M  V30 2 C -2.581544 0.372792 -0.026100 0
M  V30 3 N -2.247061 -0.428036 -0.941221 0
M  V30 4 C -1.891901 -1.422172 -1.955238 0
M  V30 5 C -1.192848 -1.036840 -3.169010 0
M  V30 6 C 0.056510 -0.212009 -3.031012 0
M  V30 7 N 0.676447 -0.382907 -1.779731 0
M  V30 8 C 1.463431 -0.677494 -0.861426 0
M  V30 9 C 2.015983 -0.801960 0.482190 0
M  V30 10 C 1.209321 -0.043811 1.307543 0
M  V30 11 O 0.102641 0.662265 0.980006 0
M  V30 12 Cu -0.638063 0.348555 -0.578183 0 VAL=4
M  V30 13 O -0.912132 2.207376 -1.317718 0
M  V30 14 C -1.952412 2.810603 -0.664573 0
M  V30 15 C -2.192921 4.163411 -0.648827 0
M  V30 16 C -3.280595 4.639052 0.043205 0
M  V30 17 C -4.084213 3.714719 0.688900 0
M  V30 18 C -3.857567 2.330988 0.684808 0
M  V30 19 C -2.717331 1.868310 -0.038338 0
M  V30 20 C 1.598762 -0.007791 2.677407 0
M  V30 21 C 2.727836 -0.726989 3.011755 0
M  V30 22 C 3.476771 -1.458647 2.118931 0
M  V30 23 C 4.613508 -2.170025 2.465036 0
M  V30 24 C 5.357984 -2.900018 1.534307 0
M  V30 25 C 4.956455 -2.922023 0.199836 0
M  V30 26 C 3.816138 -2.216569 -0.178974 0
M  V30 27 C 3.127347 -1.518236 0.782898 0
M  V30 28 H -3.533389 0.419996 1.942806 0
M  V30 29 H -4.043475 -0.941133 0.987955 0
M  V30 30 H -2.367111 -0.893895 1.651022 0
M  V30 31 H -2.946515 -1.779565 -2.345852 0
M  V30 32 H -1.478904 -2.334739 -1.498676 0
M  V30 33 H -0.840667 -2.004478 -3.677102 0
M  V30 34 H -1.836660 -0.552413 -3.887115 0
M  V30 35 H 0.639725 -0.348651 -3.941389 0
M  V30 36 H -0.274045 0.870472 -3.108649 0
M  V30 37 H 2.181604 -1.141102 -1.484626 0
M  V30 38 H -1.452598 4.707945 -1.224884 0
M  V30 39 H -3.413425 5.703546 0.025038 0
M  V30 40 H -4.912168 4.195183 1.203665 0
M  V30 41 H -4.602542 1.787901 1.230437 0
M  V30 42 H 1.091342 0.534749 3.466072 0
M  V30 43 H 3.105648 -0.751665 4.022278 0
M  V30 44 H 4.913675 -2.138085 3.509971 0
M  V30 45 H 6.254049 -3.458844 1.830642 0
M  V30 46 H 5.511834 -3.485551 -0.563582 0
M  V30 47 H 3.557453 -2.272007 -1.198870 0
M  V30 END ATOM
M  V30 BEGIN BOND
M  V30 1 1 1 2
M  V30 2 2 2 3
M  V30 3 1 3 4
M  V30 4 1 4 5
M  V30 5 1 5 6
M  V30 6 1 6 7
M  V30 7 2 7 8
M  V30 8 1 8 9
M  V30 9 2 9 10
M  V30 10 1 10 11
M  V30 11 1 11 12
M  V30 12 1 12 13
M  V30 13 1 13 14
M  V30 14 2 14 15
M  V30 15 1 15 16
M  V30 16 2 16 17
M  V30 17 1 17 18
M  V30 18 2 18 19
M  V30 19 1 10 20
M  V30 20 2 20 21
M  V30 21 1 21 22
M  V30 22 2 22 23
M  V30 23 1 23 24
M  V30 24 2 24 25
M  V30 25 1 25 26
M  V30 26 2 26 27
M  V30 27 1 19 2
M  V30 28 1 27 22
M  V30 29 9 3 12
M  V30 30 1 19 14
M  V30 31 9 7 12
M  V30 32 1 27 9
M  V30 33 1 1 28
M  V30 34 1 1 29
M  V30 35 1 1 30
M  V30 36 1 4 31
M  V30 37 1 4 32
M  V30 38 1 5 33
M  V30 39 1 5 34
M  V30 40 1 6 35
M  V30 41 1 6 36
M  V30 42 1 8 37
M  V30 43 1 15 38
M  V30 44 1 16 39
M  V30 45 1 17 40
M  V30 46 1 18 41
M  V30 47 1 20 42
M  V30 48 1 21 43
M  V30 49 1 23 44
M  V30 50 1 24 45
M  V30 51 1 25 46
M  V30 52 1 26 47
M  V30 END BOND
M  V30 END CTAB
M  END
