
 OpenBabel09252518003D

 68 74  0  0  1  0  0  0  0  0999 V2000
    1.0343   -0.0249   -0.0906 H   0  0  0  0  0  0  0  0  0  0  0  0
    2.1043   -0.0249   -0.0906 C   0  0  0  0  0  0  0  0  0  0  0  0
    2.4610    0.6434   -0.8463 H   0  0  0  0  0  0  0  0  0  0  0  0
    2.4610    0.2955    0.8660 H   0  0  0  0  0  0  0  0  0  0  0  0
    2.7077   -1.6972   -0.4303 S   0  0  0  0  0  0  0  0  0  0  0  0
    2.1975   -2.1554   -1.7985 O   0  0  0  0  0  0  0  0  0  0  0  0
   -0.3784   -2.3075   -2.2525 U   0  3  0  0  0  0  0  0  0  0  0  0
   -0.2327    0.2292   -2.8916 O   0  0  0  0  0  0  0  0  0  0  0  0
   -0.8001    1.2904   -1.9460 S   0  0  0  0  0  0  0  0  0  0  0  0
    0.0482    1.1921   -0.3501 C   0  0  0  0  0  0  0  0  0  0  0  0
    1.0949    1.3634   -0.4915 H   0  0  0  0  0  0  0  0  0  0  0  0
   -0.3485    1.9340    0.3110 H   0  0  0  0  0  0  0  0  0  0  0  0
   -0.1003    0.2208    0.0735 H   0  0  0  0  0  0  0  0  0  0  0  0
   -0.5490    2.9334   -2.6626 C   0  0  0  0  0  0  0  0  0  0  0  0
    0.4977    3.1046   -2.8040 H   0  0  0  0  0  0  0  0  0  0  0  0
   -1.0505    2.9915   -3.6060 H   0  0  0  0  0  0  0  0  0  0  0  0
   -0.9457    3.6753   -2.0015 H   0  0  0  0  0  0  0  0  0  0  0  0
    0.8065   -3.1937   -4.4146 O   0  0  0  0  0  0  0  0  0  0  0  0
    0.0309   -3.6306   -5.5210 C   0  0  0  0  0  0  0  0  0  0  0  0
    0.6057   -4.0605   -6.5698 O   0  0  0  0  0  0  0  0  0  0  0  0
    1.6295   -0.0107    2.6280 C   0  0  0  0  0  0  0  0  0  0  0  0
    2.6408   -0.3016    2.4344 H   0  0  0  0  0  0  0  0  0  0  0  0
    1.6197    0.9378    3.1232 H   0  0  0  0  0  0  0  0  0  0  0  0
    0.8975    0.0925    1.3573 N   0  0  1  0  0  4  0  0  0  0  0  0
    0.3582    1.4903    1.6664 C   0  0  0  0  0  0  0  0  0  0  0  0
    0.5788    1.7376    2.6837 H   0  0  0  0  0  0  0  0  0  0  0  0
   -0.7008    1.5044    1.5139 H   0  0  0  0  0  0  0  0  0  0  0  0
    1.0179    2.5149    0.7426 C   0  0  0  0  0  0  0  0  0  0  0  0
    1.9550    2.1302    0.3980 H   0  0  0  0  0  0  0  0  0  0  0  0
    1.1797    3.4261    1.2797 H   0  0  0  0  0  0  0  0  0  0  0  0
    0.1089    2.7863   -0.4576 N   0  0  1  0  0  4  0  0  0  0  0  0
   -1.7743    0.3324   -0.2104 C   0  0  0  0  0  0  0  0  0  0  0  0
   -2.8229    0.5418   -0.1731 H   0  0  0  0  0  0  0  0  0  0  0  0
   -1.6246   -0.7221   -0.3126 H   0  0  0  0  0  0  0  0  0  0  0  0
   -1.1565    1.0494   -1.3998 C   0  0  0  0  0  0  0  0  0  0  0  0
   -1.2197    2.3161   -1.4811 O   0  0  0  0  0  0  0  0  0  0  0  0
   -0.5087    0.3039   -2.4201 O   0  0  0  0  0  0  0  0  0  0  0  0
    0.9568    2.9115   -1.7240 C   0  0  0  0  0  0  0  0  0  0  0  0
    1.2990    3.9204   -1.8237 H   0  0  0  0  0  0  0  0  0  0  0  0
    1.7972    2.2527   -1.6561 H   0  0  0  0  0  0  0  0  0  0  0  0
    0.1150    2.5382   -2.9454 C   0  0  0  0  0  0  0  0  0  0  0  0
    0.0110    3.3935   -3.5799 H   0  0  0  0  0  0  0  0  0  0  0  0
   -0.8517    2.2102   -2.6248 H   0  0  0  0  0  0  0  0  0  0  0  0
    0.8035    1.4131   -3.7188 N   0  0  2  0  0  4  0  0  0  0  0  0
    1.3699    1.9713   -4.3576 H   0  0  0  0  0  0  0  0  0  0  0  0
    0.3090    0.0585   -3.2071 C   0  0  0  0  0  0  0  0  0  0  0  0
   -0.1916   -0.4597   -3.9981 H   0  0  0  0  0  0  0  0  0  0  0  0
   -0.3695    0.2109   -2.3939 H   0  0  0  0  0  0  0  0  0  0  0  0
    1.5010   -0.7737   -2.7274 C   0  0  0  0  0  0  0  0  0  0  0  0
    2.1393   -0.1612   -2.1254 H   0  0  0  0  0  0  0  0  0  0  0  0
    2.0438   -1.1376   -3.5747 H   0  0  0  0  0  0  0  0  0  0  0  0
    1.0067   -1.9574   -1.8950 N   0  0  1  0  0  4  0  0  0  0  0  0
    1.7894   -3.2091   -2.2481 C   0  0  0  0  0  0  0  0  0  0  0  0
    2.5820   -2.9982   -2.9352 H   0  0  0  0  0  0  0  0  0  0  0  0
    2.2368   -3.6289   -1.3715 H   0  0  0  0  0  0  0  0  0  0  0  0
    0.8916   -4.0651   -2.7728 C   0  0  0  0  0  0  0  0  0  0  0  0
    1.1809   -5.2211   -3.2146 O   0  0  0  0  0  0  0  0  0  0  0  0
   -0.3421   -3.5481   -2.7715 O   0  0  0  0  0  0  0  0  0  0  0  0
    1.1260   -1.6681   -0.3981 C   0  0  0  0  0  0  0  0  0  0  0  0
    2.1608   -1.6636   -0.1257 H   0  0  0  0  0  0  0  0  0  0  0  0
    0.6061   -2.4256    0.1504 H   0  0  0  0  0  0  0  0  0  0  0  0
    0.5195   -0.3029   -0.0721 C   0  0  0  0  0  0  0  0  0  0  0  0
   -0.5457   -0.3548   -0.1590 H   0  0  0  0  0  0  0  0  0  0  0  0
    0.8968    0.4281   -0.7564 H   0  0  0  0  0  0  0  0  0  0  0  0
    4.5177   -1.6972   -0.4303 C   0  0  0  0  0  0  0  0  0  0  0  0
    4.8743   -1.0290   -1.1860 H   0  0  0  0  0  0  0  0  0  0  0  0
    4.8743   -1.3768    0.5263 H   0  0  0  0  0  0  0  0  0  0  0  0
    4.8743   -2.6858   -0.6311 H   0  0  0  0  0  0  0  0  0  0  0  0
  1  2  1  0  0  0  0
  2  3  1  0  0  0  0
  2  4  1  0  0  0  0
  2  5  1  0  0  0  0
  5  6  2  0  0  0  0
  5 65  1  0  0  0  0
  6  7  1  0  0  0  0
  7  8  1  0  0  0  0
  7 18  1  0  0  0  0
  7 24  1  0  0  0  0
  7 31  1  0  0  0  0
  7 37  1  0  0  0  0
  7 44  1  0  0  0  0
  7 52  1  0  0  0  0
  7 58  1  0  0  0  0
  8  9  2  0  0  0  0
  9 10  1  0  0  0  0
  9 14  1  0  0  0  0
 10 11  1  0  0  0  0
 10 12  1  0  0  0  0
 10 13  1  0  0  0  0
 14 15  1  0  0  0  0
 14 16  1  0  0  0  0
 14 17  1  0  0  0  0
 18 19  1  0  0  0  0
 19 20  2  0  0  0  0
 19 21  1  0  0  0  0
 21 22  1  0  0  0  0
 21 23  1  0  0  0  0
 24 21  1  6  0  0  0
 24 25  1  0  0  0  0
 24 62  1  0  0  0  0
 25 26  1  0  0  0  0
 25 27  1  0  0  0  0
 25 28  1  0  0  0  0
 28 29  1  0  0  0  0
 28 30  1  0  0  0  0
 31 28  1  6  0  0  0
 31 32  1  0  0  0  0
 31 38  1  0  0  0  0
 32 33  1  0  0  0  0
 32 34  1  0  0  0  0
 32 35  1  0  0  0  0
 35 36  2  0  0  0  0
 35 37  1  0  0  0  0
 38 39  1  0  0  0  0
 38 40  1  0  0  0  0
 38 41  1  0  0  0  0
 41 42  1  0  0  0  0
 41 43  1  0  0  0  0
 41 44  1  0  0  0  0
 44 45  1  6  0  0  0
 44 46  1  0  0  0  0
 46 47  1  0  0  0  0
 46 48  1  0  0  0  0
 46 49  1  0  0  0  0
 49 50  1  0  0  0  0
 49 51  1  0  0  0  0
 52 49  1  1  0  0  0
 52 53  1  0  0  0  0
 52 59  1  0  0  0  0
 53 54  1  0  0  0  0
 53 55  1  0  0  0  0
 53 56  1  0  0  0  0
 56 57  2  0  0  0  0
 56 58  1  0  0  0  0
 59 60  1  0  0  0  0
 59 61  1  0  0  0  0
 59 62  1  0  0  0  0
 62 63  1  0  0  0  0
 62 64  1  0  0  0  0
 65 66  1  0  0  0  0
 65 67  1  0  0  0  0
 65 68  1  0  0  0  0
M  CHG  1   7   1
M  END
$$$$
