
 OpenBabel09252518293D

 53 64  0  0  1  0  0  0  0  0999 V2000
    1.0469   -0.0400   -0.0788 H   0  0  0  0  0  0  0  0  0  0  0  0
    2.1169   -0.0400   -0.0788 C   0  0  0  0  0  0  0  0  0  0  0  0
    2.4735   -1.0231    0.1478 H   0  0  0  0  0  0  0  0  0  0  0  0
    2.4735    0.2553   -1.0434 H   0  0  0  0  0  0  0  0  0  0  0  0
    2.6235    0.9369    0.9697 C   0  0  0  0  0  0  0  0  0  0  0  0
    3.0439    1.7473    1.8396 N   0  0  0  0  0  4  0  0  0  0  0  0
    3.7672    3.1420    3.3364 Ru  0  0  0  0  0  0  0  0  0  0  0  0
    2.7960    1.4342    4.3701 C   0  0  0  0  0  0  0  0  0  0  0  0
    2.2388    0.5075    4.9309 O   0  0  0  0  0  0  0  0  0  0  0  0
    3.8299    1.7379    3.9461 Br  0  0  0  0  0  2  0  0  0  0  0  0
    2.6618    1.5510    4.8195 Ru  0  3  0  0  0  0  0  0  0  0  0  0
    1.8097    0.4218    6.5304 C   0  0  0  0  0  0  0  0  0  0  0  0
    1.4800   -0.2242    7.5091 O   0  0  0  0  0  0  0  0  0  0  0  0
    4.5305    2.3993    4.1142 N   0  0  0  0  0  4  0  0  0  0  0  0
    5.6858    2.7877    3.7913 C   0  0  0  0  0  0  0  0  0  0  0  0
    7.0786    3.2559    3.4020 C   0  0  0  0  0  0  0  0  0  0  0  0
    7.2029    3.1637    2.3433 H   0  0  0  0  0  0  0  0  0  0  0  0
    7.2037    4.2793    3.6881 H   0  0  0  0  0  0  0  0  0  0  0  0
    7.8095    2.6542    3.9007 H   0  0  0  0  0  0  0  0  0  0  0  0
    1.3587    2.6310    8.0138 C   0  0  2  0  0  0  0  0  0  0  0  0
    0.7923    2.9456    8.8654 H   0  0  0  0  0  0  0  0  0  0  0  0
    2.8133    2.4995    8.1563 C   0  0  1  0  0  0  0  0  0  0  0  0
    3.1181    2.6112    9.1758 H   0  0  0  0  0  0  0  0  0  0  0  0
    3.4218    2.4592    6.9568 C   0  0  1  0  0  0  0  0  0  0  0  0
    2.3936    2.5464    5.8573 C   0  0  1  0  0  0  0  0  0  0  0  0
    1.0514    2.2412    6.5499 C   0  0  2  0  0  0  0  0  0  0  0  0
   -0.0061    2.1370    6.6757 H   0  0  0  0  0  0  0  0  0  0  0  0
    2.3656    3.9481    5.2444 C   0  0  0  0  0  0  0  0  0  0  0  0
    1.4177    5.1301    5.1229 C   0  0  0  0  0  0  0  0  0  0  0  0
    1.4117    5.7837    5.9700 H   0  0  0  0  0  0  0  0  0  0  0  0
    1.4948    5.7089    4.2263 H   0  0  0  0  0  0  0  0  0  0  0  0
    0.5109    4.5623    5.1041 H   0  0  0  0  0  0  0  0  0  0  0  0
    1.1854    3.8847    6.2003 C   0  0  0  0  0  0  0  0  0  0  0  0
    0.5407    4.7208    6.0266 H   0  0  0  0  0  0  0  0  0  0  0  0
    0.6434    2.9766    6.0379 H   0  0  0  0  0  0  0  0  0  0  0  0
    1.5412    3.9122    7.2090 H   0  0  0  0  0  0  0  0  0  0  0  0
    3.6589    4.1798    4.4568 C   0  0  1  0  0  0  0  0  0  0  0  0
    2.6928    6.0454    5.8433 C   0  0  2  0  0  0  0  0  0  0  0  0
    2.2541    6.9289    6.2579 H   0  0  0  0  0  0  0  0  0  0  0  0
    3.4580    4.7387    5.9753 C   0  0  2  0  0  0  0  0  0  0  0  0
    2.8658    4.0991    6.5958 H   0  0  0  0  0  0  0  0  0  0  0  0
    4.8007    5.0024    6.6372 C   0  0  2  0  0  0  0  0  0  0  0  0
    5.1406    5.7989    7.2657 H   0  0  0  0  0  0  0  0  0  0  0  0
    5.5659    3.6957    6.7691 C   0  0  1  0  0  0  0  0  0  0  0  0
    4.7645    2.7229    7.6187 C   0  0  0  0  0  0  0  0  0  0  0  0
    5.0672    3.3104    8.9875 C   0  0  0  0  0  0  0  0  0  0  0  0
    5.6910    2.6758    9.5816 H   0  0  0  0  0  0  0  0  0  0  0  0
    5.5133    4.2801    8.9124 H   0  0  0  0  0  0  0  0  0  0  0  0
    4.1045    3.3953    9.4467 H   0  0  0  0  0  0  0  0  0  0  0  0
    5.0380    1.2366    7.7823 C   0  0  0  0  0  0  0  0  0  0  0  0
    5.2778    1.0772    8.8128 H   0  0  0  0  0  0  0  0  0  0  0  0
    4.7924    0.3013    7.3244 H   0  0  0  0  0  0  0  0  0  0  0  0
    5.8801    1.6681    7.2827 H   0  0  0  0  0  0  0  0  0  0  0  0
  1  2  1  0  0  0  0
  2  3  1  0  0  0  0
  2  4  1  0  0  0  0
  2  5  1  0  0  0  0
  5  6  3  0  0  0  0
  6  7  1  0  0  0  0
  7 10  1  0  0  0  0
  7 37  1  0  0  0  0
  7 38  1  0  0  0  0
  7 40  1  0  0  0  0
  7 42  1  0  0  0  0
  7 44  1  0  0  0  0
  7  8  1  0  0  0  0
  8  9  3  0  0  0  0
 10 11  1  0  0  0  0
 11 20  1  0  0  0  0
 11 22  1  0  0  0  0
 11 24  1  0  0  0  0
 11 25  1  0  0  0  0
 11 26  1  0  0  0  0
 11 12  1  0  0  0  0
 11 14  1  0  0  0  0
 12 13  3  0  0  0  0
 14 15  3  0  0  0  0
 15 16  1  0  0  0  0
 16 17  1  0  0  0  0
 16 18  1  0  0  0  0
 16 19  1  0  0  0  0
 20 22  1  0  0  0  0
 20 26  1  0  0  0  0
 20 21  1  6  0  0  0
 22 24  1  0  0  0  0
 22 23  1  6  0  0  0
 24 25  1  0  0  0  0
 24 45  1  1  0  0  0
 25 26  1  0  0  0  0
 25 28  1  1  0  0  0
 26 27  1  1  0  0  0
 28 29  1  0  0  0  0
 28 33  1  0  0  0  0
 29 30  1  0  0  0  0
 29 31  1  0  0  0  0
 29 32  1  0  0  0  0
 33 34  1  0  0  0  0
 33 35  1  0  0  0  0
 33 36  1  0  0  0  0
 37 28  1  6  0  0  0
 37 38  1  0  0  0  0
 37 44  1  0  0  0  0
 38 40  1  0  0  0  0
 38 39  1  1  0  0  0
 40 42  1  0  0  0  0
 40 41  1  1  0  0  0
 42 44  1  0  0  0  0
 42 43  1  6  0  0  0
 44 45  1  6  0  0  0
 45 46  1  0  0  0  0
 45 50  1  0  0  0  0
 46 47  1  0  0  0  0
 46 48  1  0  0  0  0
 46 49  1  0  0  0  0
 50 51  1  0  0  0  0
 50 52  1  0  0  0  0
 50 53  1  0  0  0  0
M  CHG  1  11   1
M  END
$$$$
