
     RDKit          3D

 35 38  0  0  0  0  0  0  0  0999 V2000
    5.9098   -0.4524    1.1536 F   0  0  0  0  0  0  0  0  0  0  0  0
    4.7735   -1.0853    0.7505 C   0  0  0  0  0  0  0  0  0  0  0  0
    5.1720   -2.0690   -0.1014 F   0  0  0  0  0  0  0  0  0  0  0  0
    4.2907   -1.7213    1.8548 F   0  0  0  0  0  0  0  0  0  0  0  0
    3.7625   -0.1582    0.1218 C   0  0  0  0  0  0  0  0  0  0  0  0
    4.1716    1.0247   -0.5014 C   0  0  0  0  0  0  0  0  0  0  0  0
    3.2299    1.8580   -1.0942 C   0  0  0  0  0  0  0  0  0  0  0  0
    1.8746    1.5121   -1.0787 C   0  0  0  0  0  0  0  0  0  0  0  0
    1.4251    0.3241   -0.4828 C   0  0  0  0  0  0  0  0  0  0  0  0
    2.3934   -0.4968    0.1219 C   0  0  0  0  0  0  0  0  0  0  0  0
    0.0195   -0.0093   -0.4533 N   0  0  0  0  0  0  0  0  0  0  0  0
   -0.4119   -1.1123    0.4123 C   0  0  0  0  0  0  0  0  0  0  0  0
   -1.9191   -1.2460    0.6992 C   0  0  0  0  0  0  0  0  0  0  0  0
   -2.1480   -2.8765    1.3980 Cl  0  0  0  0  0  0  0  0  0  0  0  0
   -2.3532   -0.2703    1.6737 O   0  0  0  0  0  0  0  0  0  0  0  0
   -3.3962    0.4903    1.0261 C   0  0  0  0  0  0  0  0  0  0  0  0
   -4.4453    1.4996    2.2596 Br  0  0  0  0  0  0  0  0  0  0  0  0
   -2.6894    1.4028    0.0126 C   0  0  0  0  0  0  0  0  0  0  0  0
   -2.3206    0.3853   -1.0941 C   0  0  0  0  0  0  0  0  0  0  0  0
   -2.8172   -0.9564   -0.5106 C   0  0  0  0  0  0  0  0  0  0  0  0
   -4.1369   -0.4693    0.1033 C   0  0  0  0  0  0  0  0  0  0  0  0
   -5.4489   -1.8838    0.9020 I   0  0  0  0  0  0  0  0  0  0  0  0
   -0.8509    0.4625   -1.4339 C   0  0  0  0  0  0  0  0  0  0  0  0
   -0.5231    0.9893   -2.4954 O   0  0  0  0  0  0  0  0  0  0  0  0
    5.2241    1.3033   -0.5245 H   0  0  0  0  0  0  0  0  0  0  0  0
    3.5433    2.7842   -1.5709 H   0  0  0  0  0  0  0  0  0  0  0  0
    1.1804    2.2153   -1.5324 H   0  0  0  0  0  0  0  0  0  0  0  0
    2.1193   -1.4382    0.5927 H   0  0  0  0  0  0  0  0  0  0  0  0
    0.0986   -1.0006    1.3772 H   0  0  0  0  0  0  0  0  0  0  0  0
   -0.0585   -2.0248   -0.0864 H   0  0  0  0  0  0  0  0  0  0  0  0
   -3.3584    2.1689   -0.3980 H   0  0  0  0  0  0  0  0  0  0  0  0
   -1.8160    1.9052    0.4437 H   0  0  0  0  0  0  0  0  0  0  0  0
   -2.8866    0.6148   -2.0074 H   0  0  0  0  0  0  0  0  0  0  0  0
   -2.8750   -1.7573   -1.2518 H   0  0  0  0  0  0  0  0  0  0  0  0
   -4.7333    0.0872   -0.6345 H   0  0  0  0  0  0  0  0  0  0  0  0
  1  2  1  0
  2  3  1  0
  2  4  1  0
  2  5  1  0
  5  6  2  0
  6  7  1  0
  7  8  2  0
  8  9  1  0
  9 10  2  0
  9 11  1  0
 11 12  1  0
 12 13  1  0
 13 14  1  0
 13 15  1  0
 15 16  1  0
 16 17  1  0
 16 18  1  0
 18 19  1  0
 19 20  1  0
 20 21  1  0
 21 22  1  0
 19 23  1  0
 23 24  2  0
 10  5  1  0
 23 11  1  0
 20 13  1  0
 21 16  1  0
  6 25  1  0
  7 26  1  0
  8 27  1  0
 10 28  1  0
 12 29  1  0
 12 30  1  0
 18 31  1  0
 18 32  1  0
 19 33  1  0
 20 34  1  0
 21 35  1  0
M  END
