
 OpenBabel09252515043D

 75 87  0  0  1  0  0  0  0  0999 V2000
    0.9840    0.0313   -0.0936 H   0  0  0  0  0  0  0  0  0  0  0  0
    2.0540    0.0313   -0.0936 C   0  0  0  0  0  3  0  0  0  0  0  0
    2.4681    1.0810   -0.8780 C   0  0  0  0  0  3  0  0  0  0  0  0
    2.3161    0.8090   -1.9016 H   0  0  0  0  0  0  0  0  0  0  0  0
    1.7654    2.3724   -0.6355 C   0  0  0  0  0  3  0  0  0  0  0  0
    2.0452    3.0833   -1.3846 H   0  0  0  0  0  0  0  0  0  0  0  0
    0.2847    2.1209   -0.7003 C   0  0  1  0  0  0  0  0  0  0  0  0
   -0.6550    4.3768   -0.5470 C   0  0  1  0  0  0  0  0  0  0  0  0
   -1.1277    6.1099   -0.0274 Si  0  0  0  0  0  0  0  0  0  0  0  0
   -2.9715    6.1182   -0.3390 C   0  0  0  0  0  0  0  0  0  0  0  0
   -3.4343    5.3450    0.2380 H   0  0  0  0  0  0  0  0  0  0  0  0
   -3.3770    7.0666   -0.0547 H   0  0  0  0  0  0  0  0  0  0  0  0
   -3.1583    5.9477   -1.3787 H   0  0  0  0  0  0  0  0  0  0  0  0
   -0.8013    6.4079    1.7896 C   0  0  0  0  0  0  0  0  0  0  0  0
    0.2538    6.4031    1.9679 H   0  0  0  0  0  0  0  0  0  0  0  0
   -1.2068    7.3563    2.0740 H   0  0  0  0  0  0  0  0  0  0  0  0
   -1.2640    5.6347    2.3666 H   0  0  0  0  0  0  0  0  0  0  0  0
   -0.3190    7.4612   -1.0358 C   0  0  0  0  0  0  0  0  0  0  0  0
    0.7360    7.4564   -0.8575 H   0  0  0  0  0  0  0  0  0  0  0  0
   -0.5058    7.2907   -2.0755 H   0  0  0  0  0  0  0  0  0  0  0  0
   -0.7245    8.4096   -0.7515 H   0  0  0  0  0  0  0  0  0  0  0  0
    1.4390   -3.4795   -2.4469 C   0  0  1  0  0  0  0  0  0  0  0  0
    1.8062   -4.4458   -2.7233 H   0  0  0  0  0  0  0  0  0  0  0  0
    0.7424   -2.3027   -1.7834 C   0  0  1  0  0  0  0  0  0  0  0  0
    1.2733   -2.2036   -0.5264 C   0  0  1  0  0  0  0  0  0  0  0  0
    2.5107   -1.3557   -0.4997 C   0  0  0  0  0  3  0  0  0  0  0  0
    2.9651   -1.3295   -1.4681 H   0  0  0  0  0  0  0  0  0  0  0  0
   -0.3932    2.2520   -1.8572 Zr  0  0  0  0  0  0  0  0  0  0  0  0
   -2.1533    1.4025   -3.8202 Cl  0  0  0  0  0  0  0  0  0  0  0  0
   -0.9783   -0.4543   -1.7749 Cl  0  0  0  0  0  0  0  0  0  0  0  0
   -1.7663    1.8119   -2.0965 C   0  0  2  0  0  0  0  0  0  0  0  0
   -2.3978    2.0639   -1.2703 H   0  0  0  0  0  0  0  0  0  0  0  0
   -2.2721    2.4998   -3.3672 C   0  0  2  0  0  0  0  0  0  0  0  0
   -3.8950    2.5433   -4.2953 Si  0  0  0  0  0  0  0  0  0  0  0  0
   -3.6825    3.5183   -5.8768 C   0  0  0  0  0  0  0  0  0  0  0  0
   -2.9360    3.0523   -6.4855 H   0  0  0  0  0  0  0  0  0  0  0  0
   -4.6111    3.5433   -6.4078 H   0  0  0  0  0  0  0  0  0  0  0  0
   -3.3789    4.5170   -5.6420 H   0  0  0  0  0  0  0  0  0  0  0  0
   -4.4256    0.7977   -4.7056 C   0  0  0  0  0  0  0  0  0  0  0  0
   -4.5472    0.2399   -3.8007 H   0  0  0  0  0  0  0  0  0  0  0  0
   -5.3542    0.8228   -5.2367 H   0  0  0  0  0  0  0  0  0  0  0  0
   -3.6791    0.3318   -5.3143 H   0  0  0  0  0  0  0  0  0  0  0  0
   -5.1996    3.3576   -3.2315 C   0  0  0  0  0  0  0  0  0  0  0  0
   -5.3212    2.7997   -2.3265 H   0  0  0  0  0  0  0  0  0  0  0  0
   -4.8960    4.3564   -2.9966 H   0  0  0  0  0  0  0  0  0  0  0  0
   -6.1282    3.3826   -3.7625 H   0  0  0  0  0  0  0  0  0  0  0  0
   -1.0731    3.2701   -3.9434 C   0  0  2  0  0  0  0  0  0  0  0  0
   -1.2718    4.0935   -5.2056 C   0  0  0  0  0  3  0  0  0  0  0  0
   -0.3938    4.0313   -5.8139 H   0  0  0  0  0  0  0  0  0  0  0  0
   -2.4637    3.5545   -5.9796 C   0  0  0  0  0  3  0  0  0  0  0  0
   -3.3418    3.6167   -5.3713 H   0  0  0  0  0  0  0  0  0  0  0  0
   -2.6625    4.3778   -7.2418 C   0  0  0  0  0  3  0  0  0  0  0  0
   -3.2659    5.2612   -7.2625 H   0  0  0  0  0  0  0  0  0  0  0  0
    1.4147    3.5947   -3.4505 C   0  0  0  0  0  3  0  0  0  0  0  0
    1.7314    4.4274   -2.8579 H   0  0  0  0  0  0  0  0  0  0  0  0
    0.1277    2.8790   -3.0737 C   0  0  2  0  0  0  0  0  0  0  0  0
   -1.7716    0.3073   -2.2874 C   0  0  2  0  0  0  0  0  0  0  0  0
   -0.6507   -0.3627   -1.8585 Si  0  0  0  0  0  0  0  0  0  0  0  0
   -0.3621    1.2381   -2.7811 C   0  0  0  0  0  0  0  0  0  0  0  0
   -1.2795    1.7700   -2.9233 H   0  0  0  0  0  0  0  0  0  0  0  0
    0.3150    1.8405   -2.2122 H   0  0  0  0  0  0  0  0  0  0  0  0
    0.0724    1.0154   -3.7332 H   0  0  0  0  0  0  0  0  0  0  0  0
    0.4277   -0.9131   -0.4334 C   0  0  0  0  0  0  0  0  0  0  0  0
    1.1026   -0.1190   -0.1910 H   0  0  0  0  0  0  0  0  0  0  0  0
   -0.1630   -1.1540    0.4257 H   0  0  0  0  0  0  0  0  0  0  0  0
    0.9850   -1.7749   -0.7361 H   0  0  0  0  0  0  0  0  0  0  0  0
   -0.6827   -1.8458   -2.0025 Si  0  0  0  0  0  0  0  0  0  0  0  0
   -2.0525   -2.7980   -2.8473 C   0  0  0  0  0  0  0  0  0  0  0  0
   -1.9859   -3.8431   -2.6274 H   0  0  0  0  0  0  0  0  0  0  0  0
   -2.9729   -2.4107   -2.4629 H   0  0  0  0  0  0  0  0  0  0  0  0
   -2.0197   -2.6537   -3.9070 H   0  0  0  0  0  0  0  0  0  0  0  0
   -1.8747   -2.7939   -0.9174 C   0  0  0  0  0  0  0  0  0  0  0  0
   -1.6345   -2.7517    0.1244 H   0  0  0  0  0  0  0  0  0  0  0  0
   -2.8114   -2.3056   -1.0876 H   0  0  0  0  0  0  0  0  0  0  0  0
   -1.9439   -3.8159   -1.2265 H   0  0  0  0  0  0  0  0  0  0  0  0
  1  2  1  0  0  0  0
  2  3  1  0  0  0  0
  2 26  1  0  0  0  0
  3  5  1  0  0  0  0
  3  4  1  0  0  0  0
  5  6  1  0  0  0  0
  7  5  1  1  0  0  0
  7  8  1  0  0  0  0
  7 25  1  0  0  0  0
  7 28  1  0  0  0  0
  8 22  1  0  0  0  0
  8 28  1  0  0  0  0
  8  9  1  6  0  0  0
  9 10  1  0  0  0  0
  9 14  1  0  0  0  0
  9 18  1  0  0  0  0
 10 11  1  0  0  0  0
 10 12  1  0  0  0  0
 10 13  1  0  0  0  0
 14 15  1  0  0  0  0
 14 16  1  0  0  0  0
 14 17  1  0  0  0  0
 18 19  1  0  0  0  0
 18 20  1  0  0  0  0
 18 21  1  0  0  0  0
 22 24  1  0  0  0  0
 22 28  1  0  0  0  0
 22 23  1  6  0  0  0
 24 25  1  0  0  0  0
 24 28  1  0  0  0  0
 24 67  1  1  0  0  0
 25 26  1  1  0  0  0
 25 28  1  0  0  0  0
 26 27  1  0  0  0  0
 28 31  1  0  0  0  0
 28 33  1  0  0  0  0
 28 47  1  0  0  0  0
 28 56  1  0  0  0  0
 28 57  1  0  0  0  0
 28 29  1  0  0  0  0
 28 30  1  0  0  0  0
 31 33  1  0  0  0  0
 31 57  1  0  0  0  0
 31 32  1  6  0  0  0
 33 47  1  0  0  0  0
 33 34  1  6  0  0  0
 34 35  1  0  0  0  0
 34 39  1  0  0  0  0
 34 43  1  0  0  0  0
 35 36  1  0  0  0  0
 35 37  1  0  0  0  0
 35 38  1  0  0  0  0
 39 40  1  0  0  0  0
 39 41  1  0  0  0  0
 39 42  1  0  0  0  0
 43 44  1  0  0  0  0
 43 45  1  0  0  0  0
 43 46  1  0  0  0  0
 47 48  1  6  0  0  0
 47 56  1  0  0  0  0
 48 50  1  0  0  0  0
 48 49  1  0  0  0  0
 50 52  1  0  0  0  0
 50 51  1  0  0  0  0
 52 54  1  0  0  0  0
 52 53  1  0  0  0  0
 54 55  1  0  0  0  0
 56 54  1  1  0  0  0
 56 57  1  0  0  0  0
 57 58  1  6  0  0  0
 58 67  1  0  0  0  0
 58 59  1  0  0  0  0
 58 63  1  0  0  0  0
 59 60  1  0  0  0  0
 59 61  1  0  0  0  0
 59 62  1  0  0  0  0
 63 64  1  0  0  0  0
 63 65  1  0  0  0  0
 63 66  1  0  0  0  0
 67 68  1  0  0  0  0
 67 72  1  0  0  0  0
 68 69  1  0  0  0  0
 68 70  1  0  0  0  0
 68 71  1  0  0  0  0
 72 73  1  0  0  0  0
 72 74  1  0  0  0  0
 72 75  1  0  0  0  0
M  END
$$$$
