
     RDKit          3D

  0  0  0  0  0  0  0  0  0  0999 V3000
M  V30 BEGIN CTAB
M  V30 COUNTS 79 83 0 0 0
M  V30 BEGIN ATOM
M  V30 1 Cl 0.365802 2.814037 -2.044429 0
M  V30 2 Ru 1.085546 0.892499 -0.726844 0 VAL=6
M  V30 3 C 2.546896 2.060616 0.855659 0
M  V30 4 C 3.530186 1.036588 0.851354 0
M  V30 5 C 4.224472 1.502600 1.990861 0
M  V30 6 C 5.371730 0.875289 2.477321 0
M  V30 7 C 5.845648 -0.241582 1.824122 0
M  V30 8 C 5.144863 -0.664441 0.724167 0
M  V30 9 C 4.014909 -0.039344 0.251491 0
M  V30 10 C 3.275651 -0.589194 -0.866382 0
M  V30 11 C 4.279272 -1.364451 -1.696906 0
M  V30 12 N 2.441729 0.159885 -1.672346 0
M  V30 13 C 3.296836 1.071645 -2.405513 0
M  V30 14 C 1.939512 -0.733495 -2.708203 0
M  V30 15 Cl -0.156409 2.018726 -2.166732 0
M  V30 16 C -0.623506 0.211030 -0.181681 0 RAD=2 VAL=3
M  V30 17 N -1.092382 0.957180 1.036664 0
M  V30 18 C -0.664931 0.081520 2.110837 0
M  V30 19 C 0.017144 -1.033737 1.311517 0
M  V30 20 N -0.791286 -1.130025 0.118481 0
M  V30 21 C -1.376915 -2.398192 -0.157420 0
M  V30 22 C -0.955387 -3.490782 -0.859531 0
M  V30 23 C 0.373613 -3.404346 -1.451092 0
M  V30 24 C -1.636391 -4.664094 -1.047922 0
M  V30 25 C -2.880172 -4.806566 -0.490162 0
M  V30 26 C -3.548552 -6.102271 -0.732909 0
M  V30 27 C -3.358108 -3.734854 0.232019 0
M  V30 28 C -2.664028 -2.522954 0.430847 0
M  V30 29 C -3.548477 -1.704813 1.265618 0
M  V30 30 C -1.891423 2.150390 0.883878 0
M  V30 31 C -1.475415 3.359276 1.405399 0
M  V30 32 C -0.322284 3.558039 2.306860 0
M  V30 33 C -2.138904 4.570194 1.204442 0
M  V30 34 C -3.279519 4.582596 0.445905 0
M  V30 35 C -3.991095 5.884654 0.225896 0
M  V30 36 C -3.715045 3.409940 -0.079442 0
M  V30 37 C -3.045559 2.220434 0.127883 0
M  V30 38 C -3.688328 1.118061 -0.583785 0
M  V30 39 H 1.867791 2.765197 0.857065 0
M  V30 40 H 4.068400 2.344470 2.692665 0
M  V30 41 H 6.001799 1.128104 3.338543 0
M  V30 42 H 6.738080 -0.810398 2.122034 0
M  V30 43 H 5.494020 -1.546486 0.210702 0
M  V30 44 H 2.628417 -1.426908 -0.417630 0
M  V30 45 H 4.111395 -1.270285 -2.801950 0
M  V30 46 H 5.307469 -0.867656 -1.597853 0
M  V30 47 H 4.437098 -2.398795 -1.350217 0
M  V30 48 H 2.790342 2.080280 -2.334179 0
M  V30 49 H 3.437146 0.849119 -3.456217 0
M  V30 50 H 4.292455 1.228436 -1.935850 0
M  V30 51 H 0.816136 -0.762151 -2.605050 0
M  V30 52 H 2.270527 -1.759997 -2.654494 0
M  V30 53 H 2.168133 -0.352471 -3.748720 0
M  V30 54 H 0.060379 0.503042 2.803449 0
M  V30 55 H -1.500357 -0.279883 2.715192 0
M  V30 56 H 0.022923 -1.905905 1.961047 0
M  V30 57 H 1.041211 -0.694693 1.164369 0
M  V30 58 H 0.772594 -4.464811 -1.550010 0
M  V30 59 H 1.114028 -2.912926 -0.835050 0
M  V30 60 H 0.270754 -3.070520 -2.492268 0
M  V30 61 H -1.178284 -5.454487 -1.633289 0
M  V30 62 H -3.464995 -6.446226 -1.795634 0
M  V30 63 H -3.100397 -6.873560 -0.052148 0
M  V30 64 H -4.625551 -6.000765 -0.517919 0
M  V30 65 H -4.360523 -4.008137 0.608576 0
M  V30 66 H -4.550859 -1.628591 0.722651 0
M  V30 67 H -3.849984 -2.265194 2.212624 0
M  V30 68 H -3.296590 -0.684677 1.461873 0
M  V30 69 H -0.697258 4.089299 3.228050 0
M  V30 70 H 0.325566 4.320947 1.777983 0
M  V30 71 H 0.289193 2.712228 2.538784 0
M  V30 72 H -1.811829 5.534057 1.613921 0
M  V30 73 H -4.242077 5.919959 -0.856066 0
M  V30 74 H -3.340649 6.734678 0.516741 0
M  V30 75 H -4.930982 5.817534 0.793484 0
M  V30 76 H -4.633739 3.509758 -0.674564 0
M  V30 77 H -4.121886 1.427302 -1.571469 0
M  V30 78 H -4.549612 0.721074 0.024177 0
M  V30 79 H -2.979976 0.289982 -0.693277 0
M  V30 END ATOM
M  V30 BEGIN BOND
M  V30 1 1 1 2
M  V30 2 2 2 3
M  V30 3 1 3 4
M  V30 4 2 4 5
M  V30 5 1 5 6
M  V30 6 2 6 7
M  V30 7 1 7 8
M  V30 8 2 8 9
M  V30 9 1 9 10
M  V30 10 1 10 11
M  V30 11 1 10 12
M  V30 12 1 12 13
M  V30 13 1 12 14
M  V30 14 1 2 15
M  V30 15 1 2 16
M  V30 16 1 16 17
M  V30 17 1 17 18
M  V30 18 1 18 19
M  V30 19 1 19 20
M  V30 20 1 20 21
M  V30 21 2 21 22
M  V30 22 1 22 23
M  V30 23 1 22 24
M  V30 24 2 24 25
M  V30 25 1 25 26
M  V30 26 1 25 27
M  V30 27 2 27 28
M  V30 28 1 28 29
M  V30 29 1 17 30
M  V30 30 2 30 31
M  V30 31 1 31 32
M  V30 32 1 31 33
M  V30 33 2 33 34
M  V30 34 1 34 35
M  V30 35 1 34 36
M  V30 36 2 36 37
M  V30 37 1 37 38
M  V30 38 9 12 2
M  V30 39 1 20 16
M  V30 40 1 28 21
M  V30 41 1 37 30
M  V30 42 1 9 4
M  V30 43 1 3 39
M  V30 44 1 5 40
M  V30 45 1 6 41
M  V30 46 1 7 42
M  V30 47 1 8 43
M  V30 48 1 10 44
M  V30 49 1 11 45
M  V30 50 1 11 46
M  V30 51 1 11 47
M  V30 52 1 13 48
M  V30 53 1 13 49
M  V30 54 1 13 50
M  V30 55 1 14 51
M  V30 56 1 14 52
M  V30 57 1 14 53
M  V30 58 1 18 54
M  V30 59 1 18 55
M  V30 60 1 19 56
M  V30 61 1 19 57
M  V30 62 1 23 58
M  V30 63 1 23 59
M  V30 64 1 23 60
M  V30 65 1 24 61
M  V30 66 1 26 62
M  V30 67 1 26 63
M  V30 68 1 26 64
M  V30 69 1 27 65
M  V30 70 1 29 66
M  V30 71 1 29 67
M  V30 72 1 29 68
M  V30 73 1 32 69
M  V30 74 1 32 70
M  V30 75 1 32 71
M  V30 76 1 33 72
M  V30 77 1 35 73
M  V30 78 1 35 74
M  V30 79 1 35 75
M  V30 80 1 36 76
M  V30 81 1 38 77
M  V30 82 1 38 78
M  V30 83 1 38 79
M  V30 END BOND
M  V30 END CTAB
M  END
