
 OpenBabel09252515083D

 80 84  0  0  0  0  0  0  0  0999 V2000
    0.9224   -0.0554    0.0301 Cl  0  0  0  0  0  0  0  0  0  0  0  0
    3.4024   -0.0554    0.0301 Ru  0  0  0  0  0  0  0  0  0  0  0  0
    4.4639    0.6467   -0.2327 C   0  0  0  0  0  0  0  0  0  0  0  0
    5.7261   -0.0240   -0.5449 C   0  0  0  0  0  0  0  0  0  0  0  0
    6.8894    0.6929   -0.8328 C   0  0  0  0  0  0  0  0  0  0  0  0
    8.0464    0.0214   -1.1119 C   0  0  0  0  0  0  0  0  0  0  0  0
    8.0791   -1.3672   -1.1251 C   0  0  0  0  0  0  0  0  0  0  0  0
    6.9470   -2.1005   -0.8460 C   0  0  0  0  0  0  0  0  0  0  0  0
    5.7565   -1.4366   -0.5524 C   0  0  0  0  0  0  0  0  0  0  0  0
    4.5166   -2.1608   -0.2457 C   0  0  0  0  0  0  0  0  0  0  0  0
    4.1821   -2.8844   -1.5398 C   0  0  0  0  0  0  0  0  0  0  0  0
    3.4024   -1.4506    0.0301 N   0  0  0  0  0  0  0  0  0  0  0  0
    4.0591   -0.2448   -0.4950 C   0  0  0  0  0  0  0  0  0  0  0  0
    2.5405   -1.7630   -1.1190 C   0  0  0  0  0  0  0  0  0  0  0  0
    4.6424   -0.0554    2.1778 Cl  0  0  0  0  0  0  0  0  0  0  0  0
    4.5124   -0.0554   -1.8925 C   0  0  0  0  0  3  0  0  0  0  0  0
    5.8166   -0.8816   -1.7734 N   0  0  0  0  0  0  0  0  0  0  0  0
    6.1116   -1.2648   -3.2481 C   0  0  0  0  0  0  0  0  0  0  0  0
    4.7198   -1.5459   -3.8524 C   0  0  0  0  0  0  0  0  0  0  0  0
    3.7033   -0.7768   -2.9901 N   0  0  0  0  0  0  0  0  0  0  0  0
    2.2457   -0.7374   -3.1761 C   0  0  0  0  0  0  0  0  0  0  0  0
    1.5028   -1.8997   -3.1222 C   0  0  0  0  0  0  0  0  0  0  0  0
    2.2003   -3.2263   -2.8686 C   0  0  0  0  0  0  0  0  0  0  0  0
    0.1899   -1.8720   -3.2890 C   0  0  0  0  0  0  0  0  0  0  0  0
   -0.4573   -0.7392   -3.5058 C   0  0  0  0  0  0  0  0  0  0  0  0
   -1.9667   -0.7588   -3.6841 C   0  0  0  0  0  0  0  0  0  0  0  0
    0.2224    0.4617   -3.5722 C   0  0  0  0  0  0  0  0  0  0  0  0
    1.5999    0.4686   -3.4079 C   0  0  0  0  0  0  0  0  0  0  0  0
    2.3844    1.7685   -3.4803 C   0  0  0  0  0  0  0  0  0  0  0  0
    6.5836   -1.2187   -0.5656 C   0  0  0  0  0  0  0  0  0  0  0  0
    7.8826   -0.7797   -0.4055 C   0  0  0  0  0  0  0  0  0  0  0  0
    8.5481    0.0188   -1.5146 C   0  0  0  0  0  0  0  0  0  0  0  0
    8.5552   -1.0463    0.7031 C   0  0  0  0  0  0  0  0  0  0  0  0
    8.0124   -1.7324    1.6949 C   0  0  0  0  0  0  0  0  0  0  0  0
    8.8236   -2.0067    2.9507 C   0  0  0  0  0  0  0  0  0  0  0  0
    6.7167   -2.2027    1.6029 C   0  0  0  0  0  0  0  0  0  0  0  0
    5.9848   -1.9467    0.4525 C   0  0  0  0  0  0  0  0  0  0  0  0
    4.5585   -2.4525    0.3106 C   0  0  0  0  0  0  0  0  0  0  0  0
    4.4148    1.7155   -0.2207 H   0  0  0  0  0  0  0  0  0  0  0  0
    6.8749    1.7628   -0.8348 H   0  0  0  0  0  0  0  0  0  0  0  0
    8.9389    0.5726   -1.3231 H   0  0  0  0  0  0  0  0  0  0  0  0
    8.9938   -1.8728   -1.3547 H   0  0  0  0  0  0  0  0  0  0  0  0
    6.9808   -3.1700   -0.8543 H   0  0  0  0  0  0  0  0  0  0  0  0
    4.7150   -2.7785    0.6052 H   0  0  0  0  0  0  0  0  0  0  0  0
    5.0010   -3.5144   -1.8182 H   0  0  0  0  0  0  0  0  0  0  0  0
    3.3052   -3.4810   -1.3985 H   0  0  0  0  0  0  0  0  0  0  0  0
    4.0047   -2.1673   -2.3139 H   0  0  0  0  0  0  0  0  0  0  0  0
    3.1031   -1.7373    0.9621 H   0  0  0  0  0  0  0  0  0  0  0  0
    4.5892   -0.4892   -1.3918 H   0  0  0  0  0  0  0  0  0  0  0  0
    3.3204    0.4992   -0.7088 H   0  0  0  0  0  0  0  0  0  0  0  0
    4.7457    0.1332    0.2334 H   0  0  0  0  0  0  0  0  0  0  0  0
    2.4123   -2.8228   -1.1910 H   0  0  0  0  0  0  0  0  0  0  0  0
    1.5867   -1.2965   -0.9867 H   0  0  0  0  0  0  0  0  0  0  0  0
    2.9952   -1.3970   -2.0158 H   0  0  0  0  0  0  0  0  0  0  0  0
    6.7705   -2.1039   -3.3294 H   0  0  0  0  0  0  0  0  0  0  0  0
    6.5919   -0.4578   -3.7610 H   0  0  0  0  0  0  0  0  0  0  0  0
    4.5061   -2.5943   -3.8584 H   0  0  0  0  0  0  0  0  0  0  0  0
    4.6804   -1.2017   -4.8648 H   0  0  0  0  0  0  0  0  0  0  0  0
    1.8130   -3.6675   -1.9741 H   0  0  0  0  0  0  0  0  0  0  0  0
    2.0270   -3.8840   -3.6946 H   0  0  0  0  0  0  0  0  0  0  0  0
    3.2517   -3.0611   -2.7586 H   0  0  0  0  0  0  0  0  0  0  0  0
   -0.3611   -2.7882   -3.2474 H   0  0  0  0  0  0  0  0  0  0  0  0
   -2.2185   -1.3699   -4.5255 H   0  0  0  0  0  0  0  0  0  0  0  0
   -2.4247   -1.1581   -2.8034 H   0  0  0  0  0  0  0  0  0  0  0  0
   -2.3193    0.2379   -3.8489 H   0  0  0  0  0  0  0  0  0  0  0  0
   -0.3068    1.3749   -3.7480 H   0  0  0  0  0  0  0  0  0  0  0  0
    2.2437    2.2169   -4.4416 H   0  0  0  0  0  0  0  0  0  0  0  0
    2.0374    2.4372   -2.7205 H   0  0  0  0  0  0  0  0  0  0  0  0
    3.4243    1.5663   -3.3298 H   0  0  0  0  0  0  0  0  0  0  0  0
    8.8302    0.9811   -1.1413 H   0  0  0  0  0  0  0  0  0  0  0  0
    9.4191   -0.5011   -1.8551 H   0  0  0  0  0  0  0  0  0  0  0  0
    7.8634    0.1385   -2.3280 H   0  0  0  0  0  0  0  0  0  0  0  0
    9.5624   -0.6983    0.7991 H   0  0  0  0  0  0  0  0  0  0  0  0
    9.6999   -2.5648    2.6944 H   0  0  0  0  0  0  0  0  0  0  0  0
    9.1104   -1.0788    3.3998 H   0  0  0  0  0  0  0  0  0  0  0  0
    8.2317   -2.5696    3.6418 H   0  0  0  0  0  0  0  0  0  0  0  0
    6.2831   -2.7574    2.4087 H   0  0  0  0  0  0  0  0  0  0  0  0
    4.5500   -3.5201    0.3814 H   0  0  0  0  0  0  0  0  0  0  0  0
    3.9540   -2.0384    1.0903 H   0  0  0  0  0  0  0  0  0  0  0  0
    4.1675   -2.1550   -0.6400 H   0  0  0  0  0  0  0  0  0  0  0  0
  1  2  1  0  0  0  0
  2  3  2  0  0  0  0
  2 12  1  0  0  0  0
  2 15  1  0  0  0  0
  2 16  1  0  0  0  0
  3  4  1  0  0  0  0
  3 39  1  0  0  0  0
  4  5  1  0  0  0  0
  4  9  2  0  0  0  0
  5  6  2  0  0  0  0
  5 40  1  0  0  0  0
  6  7  1  0  0  0  0
  6 41  1  0  0  0  0
  7  8  2  0  0  0  0
  7 42  1  0  0  0  0
  8  9  1  0  0  0  0
  8 43  1  0  0  0  0
  9 10  1  0  0  0  0
 10 11  1  0  0  0  0
 10 12  1  0  0  0  0
 10 44  1  0  0  0  0
 11 45  1  0  0  0  0
 11 46  1  0  0  0  0
 11 47  1  0  0  0  0
 12 13  1  0  0  0  0
 12 14  1  0  0  0  0
 12 48  1  0  0  0  0
 13 49  1  0  0  0  0
 13 50  1  0  0  0  0
 13 51  1  0  0  0  0
 14 52  1  0  0  0  0
 14 53  1  0  0  0  0
 14 54  1  0  0  0  0
 16 17  1  0  0  0  0
 16 20  1  0  0  0  0
 17 18  1  0  0  0  0
 17 30  1  0  0  0  0
 18 19  1  0  0  0  0
 18 55  1  0  0  0  0
 18 56  1  0  0  0  0
 19 20  1  0  0  0  0
 19 57  1  0  0  0  0
 19 58  1  0  0  0  0
 20 21  1  0  0  0  0
 21 22  1  0  0  0  0
 21 28  2  0  0  0  0
 22 23  1  0  0  0  0
 22 24  2  0  0  0  0
 23 59  1  0  0  0  0
 23 60  1  0  0  0  0
 23 61  1  0  0  0  0
 24 25  1  0  0  0  0
 24 62  1  0  0  0  0
 25 26  1  0  0  0  0
 25 27  2  0  0  0  0
 26 63  1  0  0  0  0
 26 64  1  0  0  0  0
 26 65  1  0  0  0  0
 27 28  1  0  0  0  0
 27 66  1  0  0  0  0
 28 29  1  0  0  0  0
 29 67  1  0  0  0  0
 29 68  1  0  0  0  0
 29 69  1  0  0  0  0
 30 31  1  0  0  0  0
 30 37  2  0  0  0  0
 31 32  1  0  0  0  0
 31 33  2  0  0  0  0
 32 70  1  0  0  0  0
 32 71  1  0  0  0  0
 32 72  1  0  0  0  0
 33 34  1  0  0  0  0
 33 73  1  0  0  0  0
 34 35  1  0  0  0  0
 34 36  2  0  0  0  0
 35 74  1  0  0  0  0
 35 75  1  0  0  0  0
 35 76  1  0  0  0  0
 36 37  1  0  0  0  0
 36 77  1  0  0  0  0
 37 38  1  0  0  0  0
 38 78  1  0  0  0  0
 38 79  1  0  0  0  0
 38 80  1  0  0  0  0
M  END
$$$$
