
 OpenBabel09252518163D

 71 77  0  0  0  0  0  0  0  0999 V2000
    0.9397   -0.0783    0.0153 C   0  0  0  0  0  0  0  0  0  0  0  0
    0.3364   -1.7060    0.5278 S   0  0  0  0  0  0  0  0  0  0  0  0
   -1.4736   -1.7060    0.5278 C   0  0  0  0  0  0  0  0  0  0  0  0
    0.8465   -2.7695   -0.4475 O   0  0  0  0  0  0  0  0  0  0  0  0
    0.2136   -5.2865   -0.0896 U   0  3  0  0  0  0  0  0  0  0  0  0
   -0.4005   -7.5836    1.0107 O   0  0  0  0  0  0  0  0  0  0  0  0
   -0.1468   -7.8001    2.3910 C   0  0  0  0  0  0  0  0  0  0  0  0
   -0.4447   -8.9144    2.9247 O   0  0  0  0  0  0  0  0  0  0  0  0
    5.1298   -4.8357   -4.2901 C   0  0  0  0  0  0  0  0  0  0  0  0
    4.8705   -4.9544   -2.8480 N   0  0  0  0  0  0  0  0  0  0  0  0
    5.1590   -6.2404   -2.0727 C   0  0  0  0  0  0  0  0  0  0  0  0
    4.0819   -7.2810   -2.3837 C   0  0  0  0  0  0  0  0  0  0  0  0
    3.4293   -7.7489   -1.0824 N   0  0  0  0  0  4  0  0  0  0  0  0
    2.2156   -6.8712   -0.7701 C   0  0  0  0  0  0  0  0  0  0  0  0
    2.3872   -6.2328    0.6107 C   0  0  0  0  0  0  0  0  0  0  0  0
    1.3830   -5.0926    0.7842 N   0  0  0  0  0  0  0  0  0  0  0  0
    2.0379   -3.7354    0.5240 C   0  0  0  0  0  0  0  0  0  0  0  0
    2.8162   -3.7660   -0.7918 C   0  0  0  0  0  0  0  0  0  0  0  0
    3.6886   -2.5127   -0.8951 N   0  0  0  0  0  0  0  0  0  0  0  0
    4.5274   -2.5712   -2.1731 C   0  0  0  0  0  0  0  0  0  0  0  0
    5.4836   -3.7629   -2.1098 C   0  0  0  0  0  0  0  0  0  0  0  0
   -1.4700   -4.2944    2.9548 C   0  0  0  0  0  0  0  0  0  0  0  0
   -1.4877   -5.8140    2.9810 C   0  0  0  0  0  0  0  0  0  0  0  0
   -2.0281   -6.4266    3.9546 O   0  0  0  0  0  0  0  0  0  0  0  0
   -0.9004   -6.5493    1.9175 O   0  0  0  0  0  0  0  0  0  0  0  0
    0.7893   -5.1257    2.1808 C   0  0  0  0  0  0  0  0  0  0  0  0
   -0.5258   -5.3635    2.0128 C   0  0  0  0  0  0  0  0  0  0  0  0
   -1.3564   -5.4880    2.9667 O   0  0  0  0  0  0  0  0  0  0  0  0
   -0.8495   -5.4524    0.7180 O   0  0  0  0  0  0  0  0  0  0  0  0
   -0.5678   -7.7105    0.5253 O   0  0  0  0  0  0  0  0  0  0  0  0
   -0.1861   -8.8888   -0.3738 S   0  0  0  0  0  0  0  0  0  0  0  0
    1.6169   -9.0201   -0.4633 C   0  0  0  0  0  0  0  0  0  0  0  0
   -0.8690  -10.4178    0.3131 C   0  0  0  0  0  0  0  0  0  0  0  0
    0.5831    0.6652    0.6971 H   0  0  0  0  0  0  0  0  0  0  0  0
    0.5831    0.1404   -0.9695 H   0  0  0  0  0  0  0  0  0  0  0  0
    2.0097   -0.0783    0.0153 H   0  0  0  0  0  0  0  0  0  0  0  0
   -1.8303   -1.4873   -0.4570 H   0  0  0  0  0  0  0  0  0  0  0  0
   -1.8303   -2.6683    0.8308 H   0  0  0  0  0  0  0  0  0  0  0  0
   -1.8303   -0.9625    1.2096 H   0  0  0  0  0  0  0  0  0  0  0  0
    4.6744   -3.9416   -4.6619 H   0  0  0  0  0  0  0  0  0  0  0  0
    6.1854   -4.7958   -4.4606 H   0  0  0  0  0  0  0  0  0  0  0  0
    4.8980   -3.9354   -2.8822 H   0  0  0  0  0  0  0  0  0  0  0  0
    6.1157   -6.6224   -2.3623 H   0  0  0  0  0  0  0  0  0  0  0  0
    5.1591   -6.0310   -1.0234 H   0  0  0  0  0  0  0  0  0  0  0  0
    4.5289   -8.1181   -2.8780 H   0  0  0  0  0  0  0  0  0  0  0  0
    3.3386   -6.8453   -3.0182 H   0  0  0  0  0  0  0  0  0  0  0  0
    4.0389   -8.5368   -0.8633 H   0  0  0  0  0  0  0  0  0  0  0  0
    1.3304   -7.4722   -0.7768 H   0  0  0  0  0  0  0  0  0  0  0  0
    2.1316   -6.1028   -1.5100 H   0  0  0  0  0  0  0  0  0  0  0  0
    3.3804   -5.8445    0.6987 H   0  0  0  0  0  0  0  0  0  0  0  0
    2.2198   -6.9714    1.3665 H   0  0  0  0  0  0  0  0  0  0  0  0
    0.9137   -5.2113    1.6820 H   0  0  0  0  0  0  0  0  0  0  0  0
    2.7141   -3.5159    1.3237 H   0  0  0  0  0  0  0  0  0  0  0  0
    1.2797   -2.9824    0.4684 H   0  0  0  0  0  0  0  0  0  0  0  0
    2.1303   -3.7929   -1.6125 H   0  0  0  0  0  0  0  0  0  0  0  0
    3.4375   -4.6368   -0.8190 H   0  0  0  0  0  0  0  0  0  0  0  0
    4.1440   -1.6655   -0.5555 H   0  0  0  0  0  0  0  0  0  0  0  0
    5.0936   -1.6680   -2.2662 H   0  0  0  0  0  0  0  0  0  0  0  0
    3.8803   -2.6793   -3.0183 H   0  0  0  0  0  0  0  0  0  0  0  0
    5.6527   -4.0280   -1.0871 H   0  0  0  0  0  0  0  0  0  0  0  0
    6.4125   -3.4986   -2.5704 H   0  0  0  0  0  0  0  0  0  0  0  0
   -0.9458   -3.9290    3.8131 H   0  0  0  0  0  0  0  0  0  0  0  0
   -0.9773   -3.9587    2.0663 H   0  0  0  0  0  0  0  0  0  0  0  0
    1.2515   -5.8755    2.7884 H   0  0  0  0  0  0  0  0  0  0  0  0
    0.9388   -4.1870    2.6720 H   0  0  0  0  0  0  0  0  0  0  0  0
    2.0122   -9.1778    0.5184 H   0  0  0  0  0  0  0  0  0  0  0  0
    1.8838   -9.8438   -1.0918 H   0  0  0  0  0  0  0  0  0  0  0  0
    2.0206   -8.1161   -0.8693 H   0  0  0  0  0  0  0  0  0  0  0  0
   -0.4737  -10.5756    1.2948 H   0  0  0  0  0  0  0  0  0  0  0  0
   -1.9349  -10.3402    0.3660 H   0  0  0  0  0  0  0  0  0  0  0  0
   -0.6021  -11.2416   -0.3155 H   0  0  0  0  0  0  0  0  0  0  0  0
  1  2  1  0  0  0  0
  1 34  1  0  0  0  0
  1 35  1  0  0  0  0
  1 36  1  0  0  0  0
  2  3  1  0  0  0  0
  2  4  2  0  0  0  0
  3 37  1  0  0  0  0
  3 38  1  0  0  0  0
  3 39  1  0  0  0  0
  4  5  1  0  0  0  0
  5  6  1  0  0  0  0
  5 10  1  0  0  0  0
  5 13  1  0  0  0  0
  5 16  1  0  0  0  0
  5 19  1  0  0  0  0
  5 25  1  0  0  0  0
  5 29  1  0  0  0  0
  5 30  1  0  0  0  0
  6  7  1  0  0  0  0
  7  8  2  0  0  0  0
  7  9  1  0  0  0  0
  9 10  1  0  0  0  0
  9 40  1  0  0  0  0
  9 41  1  0  0  0  0
 10 11  1  0  0  0  0
 10 21  1  0  0  0  0
 10 42  1  0  0  0  0
 11 12  1  0  0  0  0
 11 43  1  0  0  0  0
 11 44  1  0  0  0  0
 12 13  1  0  0  0  0
 12 45  1  0  0  0  0
 12 46  1  0  0  0  0
 13 14  1  0  0  0  0
 13 47  1  0  0  0  0
 14 15  1  0  0  0  0
 14 48  1  0  0  0  0
 14 49  1  0  0  0  0
 15 16  1  0  0  0  0
 15 50  1  0  0  0  0
 15 51  1  0  0  0  0
 16 17  1  0  0  0  0
 16 26  1  0  0  0  0
 16 52  1  0  0  0  0
 17 18  1  0  0  0  0
 17 53  1  0  0  0  0
 17 54  1  0  0  0  0
 18 19  1  0  0  0  0
 18 55  1  0  0  0  0
 18 56  1  0  0  0  0
 19 20  1  0  0  0  0
 19 22  1  0  0  0  0
 19 57  1  0  0  0  0
 20 21  1  0  0  0  0
 20 58  1  0  0  0  0
 20 59  1  0  0  0  0
 21 60  1  0  0  0  0
 21 61  1  0  0  0  0
 22 23  1  0  0  0  0
 22 62  1  0  0  0  0
 22 63  1  0  0  0  0
 23 24  2  0  0  0  0
 23 25  1  0  0  0  0
 26 27  1  0  0  0  0
 26 64  1  0  0  0  0
 26 65  1  0  0  0  0
 27 28  2  0  0  0  0
 27 29  1  0  0  0  0
 30 31  2  0  0  0  0
 31 32  1  0  0  0  0
 31 33  1  0  0  0  0
 32 66  1  0  0  0  0
 32 67  1  0  0  0  0
 32 68  1  0  0  0  0
 33 69  1  0  0  0  0
 33 70  1  0  0  0  0
 33 71  1  0  0  0  0
M  CHG  1   5   1
M  END
$$$$
