
  --CCDC--092525    3D                              

 64 65  0  0  0  0  0  0  0  0999 V2000
    1.7165    1.6478   -0.3252 H      0
    0.7717    1.1093   -0.2683 C      0
    0.3104    1.0805   -1.2544 H      0
   -0.1436    1.8825    0.6446 C      0
   -1.3649    2.2067    0.2807 N      0
   -1.9793    2.8160    1.3243 N      0
   -3.1279    3.5494    1.1934 O      0
   -2.2314    4.5880    0.7194 C      0
   -2.6371    5.1129   -0.1459 H      0
   -1.2599    4.2277    0.4004 H      0
   -1.8751    5.3556    1.3876 H      0
   -3.2258    3.1834   -0.2172 C      0
   -3.8710    3.7905   -0.8460 H      0
   -3.5756    2.1796   -0.4169 H      0
   -2.3242    3.3157   -0.8078 H      0
   -4.4601    4.0093    0.8843 C      0
   -4.5449    4.8654    0.2062 H      0
   -5.0580    4.3266    1.7153 H      0
   -5.0488    3.2260    0.4098 H      0
   -3.2318    4.5909    2.5295 P      0
   -4.4818    4.4107    3.8542 C      0
   -5.5123    4.4608    3.5115 H      0
   -4.3688    5.2429    4.5450 H      0
   -4.3828    3.5243    4.4666 H      0
   -1.6996    4.8243    3.5043 C      0
   -1.5393    4.0318    4.2329 H      0
   -1.8165    5.7303    4.0953 H      0
   -0.7937    4.9706    2.9178 H      0
   -3.6126    6.3647    2.5880 C      0
   -3.4338    6.7750    3.5794 H      0
   -4.6539    6.5437    2.3284 H      0
   -2.9913    6.9145    1.8842 H      0
   -3.7599    2.1638    1.9084 P      0
   -2.9727    0.6026    1.3876 C      0
   -3.0085    0.4693    0.3090 H      0
   -3.5348   -0.2242    1.8167 H      0
   -1.9473    0.4594    1.7166 H      0
   -3.1345    1.6734    3.5479 C      0
   -2.3259    0.9512    3.4933 H      0
   -3.9304    1.2118    4.1287 H      0
   -2.7441    2.5121    4.1140 H      0
   -5.4970    2.0929    2.4781 C      0
   -5.8592    1.0847    2.2877 H      0
   -6.1715    2.7537    1.9387 H      0
   -5.6484    2.2349    3.5394 H      0
   -1.1185    2.8626    2.3375 N      0
    0.0153    2.3053    1.9705 C      0
    1.1587    2.1487    2.9203 C      0
    1.0668    2.9031    3.7004 H      0
    2.0873    2.3037    2.3731 H      0
    1.2070    0.7774    3.5768 C      0
    0.4778    0.7742    4.3856 H      0
    2.2064    0.6451    3.9886 H      0
    0.9154   -0.4152    2.6946 C      0
   -0.1193   -0.3399    2.3632 H      0
    1.0391   -1.3139    3.2970 H      0
    1.8023   -0.5601    1.4431 C      0
    2.2094   -1.5701    1.4278 H      0
    2.6172    0.1586    1.5167 H      0
    1.0778   -0.3224    0.1425 C      0
    1.6852   -0.7604   -0.6482 H      0
    0.1267   -0.8492    0.2037 H      0
   -3.5644    5.4495    1.4825 H      0
   -4.5368    1.4716    0.9714 H      0
  1  2  1
  2  3  1
  2  4  1
  4  5  2
  5  6  1
  6  7  1
  7  8  1
  8  9  1
  8 10  1
  8 11  1
  7 12  1
 12 13  1
 12 14  1
 12 15  1
  7 16  1
 16 17  1
 16 18  1
 16 19  1
  7 20  1
 20 21  1
 21 22  1
 21 23  1
 21 24  1
 20 25  1
 25 26  1
 25 27  1
 25 28  1
 20 29  1
 29 30  1
 29 31  1
 29 32  1
  7 33  1
 33 34  1
 34 35  1
 34 36  1
 34 37  1
 33 38  1
 38 39  1
 38 40  1
 38 41  1
 33 42  1
 42 43  1
 42 44  1
 42 45  1
  6 46  1
 46 47  2
  4 47  1
 47 48  1
 48 49  1
 48 50  1
 48 51  1
 51 52  1
 51 53  1
 51 54  1
 54 55  1
 54 56  1
 54 57  1
 57 58  1
 57 59  1
 57 60  1
  2 60  1
 60 61  1
 60 62  1
 20 63  1
 33 64  1
M  END
$$$$
