
     RDKit          3D

 46 54  0  0  0  0  0  0  0  0999 V2000
    0.2715    2.3208   -1.2448 Cl  0  0  0  0  0  0  0  0  0  0  0  0
   -0.4902    0.5338   -0.4551 Ir  0  0  0  0  0  9  0  0  0  0  0  0
   -0.7768    0.2836   -2.4156 C   0  0  0  0  0  0  0  0  0  0  0  0
    0.2589   -0.2684   -2.0161 C   0  0  0  0  0  0  0  0  0  0  0  0
    1.5427   -1.0020   -1.7488 C   0  0  0  0  0  0  0  0  0  0  0  0
    2.2654   -1.8872   -2.5768 C   0  0  0  0  0  0  0  0  0  0  0  0
    3.4640   -2.3282   -2.2444 C   0  0  0  0  0  0  0  0  0  0  0  0
    3.9670   -1.8826   -1.0639 C   0  0  0  0  0  0  0  0  0  0  0  0
    3.2163   -1.0230   -0.2915 C   0  0  0  0  0  0  0  0  0  0  0  0
    4.0072   -0.6160    0.8049 C   0  0  0  0  0  0  0  0  0  0  0  0
    3.4266    0.3317    1.6083 C   0  0  0  0  0  0  0  0  0  0  0  0
    2.1688    0.7280    1.2260 C   0  0  0  0  0  0  0  0  0  0  0  0
    1.2850    0.3759    0.1483 C   0  0  0  0  0  0  0  0  0  0  0  0
    1.9475   -0.5333   -0.5779 C   0  0  0  0  0  0  0  0  0  0  0  0
   -1.0083    0.0913    1.0225 C   0  0  0  0  0  0  0  0  0  0  0  0
   -1.1415   -0.4373    2.2890 C   0  0  0  0  0  0  0  0  0  0  0  0
   -1.2162   -0.7940    0.0208 C   0  0  0  0  0  0  0  0  0  0  0  0
   -0.9900   -2.1967    0.1116 C   0  0  0  0  0  0  0  0  0  0  0  0
   -2.1722    0.0681   -0.4535 C   0  0  0  0  0  0  0  0  0  0  0  0
   -3.4282   -0.1544    0.0965 C   0  0  0  0  0  0  0  0  0  0  0  0
   -1.9045    1.5440   -0.3492 C   0  0  0  0  0  0  0  0  0  0  0  0
   -2.8528    2.3806   -0.9145 C   0  0  0  0  0  0  0  0  0  0  0  0
   -1.1898    1.4807    0.7152 C   0  0  0  0  0  0  0  0  0  0  0  0
   -0.9107    2.4722    1.7068 C   0  0  0  0  0  0  0  0  0  0  0  0
   -1.1814    0.2983   -3.5058 H   0  0  0  0  0  0  0  0  0  0  0  0
    1.7967   -2.2100   -3.5159 H   0  0  0  0  0  0  0  0  0  0  0  0
    3.9464   -2.9999   -2.9252 H   0  0  0  0  0  0  0  0  0  0  0  0
    4.9408   -2.2516   -0.8237 H   0  0  0  0  0  0  0  0  0  0  0  0
    4.9856   -0.9511    1.0796 H   0  0  0  0  0  0  0  0  0  0  0  0
    3.8035    0.7969    2.4690 H   0  0  0  0  0  0  0  0  0  0  0  0
    1.7138    1.5212    1.8666 H   0  0  0  0  0  0  0  0  0  0  0  0
   -0.1810   -0.8407    2.7280 H   0  0  0  0  0  0  0  0  0  0  0  0
   -1.8886   -1.2319    2.4245 H   0  0  0  0  0  0  0  0  0  0  0  0
   -1.4158    0.3782    3.0299 H   0  0  0  0  0  0  0  0  0  0  0  0
   -0.9279   -2.4854    1.1772 H   0  0  0  0  0  0  0  0  0  0  0  0
   -1.8069   -2.7489   -0.3981 H   0  0  0  0  0  0  0  0  0  0  0  0
   -0.0574   -2.6158   -0.3286 H   0  0  0  0  0  0  0  0  0  0  0  0
   -3.5084    0.0245    1.2078 H   0  0  0  0  0  0  0  0  0  0  0  0
   -3.7917   -1.1957   -0.0813 H   0  0  0  0  0  0  0  0  0  0  0  0
   -4.2049    0.4974   -0.3324 H   0  0  0  0  0  0  0  0  0  0  0  0
   -2.3936    3.2335   -1.4969 H   0  0  0  0  0  0  0  0  0  0  0  0
   -3.4867    2.8878   -0.1605 H   0  0  0  0  0  0  0  0  0  0  0  0
   -3.5412    1.9083   -1.6440 H   0  0  0  0  0  0  0  0  0  0  0  0
   -1.8241    3.0960    1.8091 H   0  0  0  0  0  0  0  0  0  0  0  0
   -0.1436    3.2188    1.3308 H   0  0  0  0  0  0  0  0  0  0  0  0
   -0.5733    2.1825    2.6919 H   0  0  0  0  0  0  0  0  0  0  0  0
  1  2  1  0
  2  3  1  0
  3  4  2  0
  4  5  1  0
  5  6  2  0
  6  7  1  0
  7  8  2  0
  8  9  1  0
  9 10  2  0
 10 11  1  0
 11 12  2  0
 12 13  1  0
 13 14  2  0
  2 15  1  0
 15 16  1  0
 15 17  1  0
 17 18  1  0
 17 19  1  0
 19 20  1  0
 19 21  1  0
 21 22  1  0
 21 23  1  0
 23 24  1  0
  4  2  1  0
 14  5  1  0
 23 15  1  0
 13  2  1  0
 17  2  1  0
 19  2  1  0
 21  2  1  0
 23  2  1  0
 14  9  1  0
  3 25  1  0
  6 26  1  0
  7 27  1  0
  8 28  1  0
 10 29  1  0
 11 30  1  0
 12 31  1  0
 16 32  1  0
 16 33  1  0
 16 34  1  0
 18 35  1  0
 18 36  1  0
 18 37  1  0
 20 38  1  0
 20 39  1  0
 20 40  1  0
 22 41  1  0
 22 42  1  0
 22 43  1  0
 24 44  1  0
 24 45  1  0
 24 46  1  0
M  END
