
     RDKit          3D

  0  0  0  0  0  0  0  0  0  0999 V3000
M  V30 BEGIN CTAB
M  V30 COUNTS 79 83 0 0 0
M  V30 BEGIN ATOM
M  V30 1 Cl 0.928257 0.239713 -2.641873 0
M  V30 2 Ru 1.492894 0.287211 -0.281097 0 VAL=6
M  V30 3 C 2.629201 1.952635 0.168999 0
M  V30 4 C 4.048774 1.643005 0.195405 0
M  V30 5 C 5.043720 2.518494 -0.262561 0
M  V30 6 C 6.395844 2.260608 -0.249965 0
M  V30 7 C 6.808878 1.038662 0.254608 0
M  V30 8 C 5.847857 0.163425 0.709741 0
M  V30 9 C 4.500835 0.423926 0.695749 0
M  V30 10 C 3.481766 -0.567138 1.195941 0
M  V30 11 C 4.270564 -1.692238 1.845422 0
M  V30 12 N 2.709615 -1.008738 0.087931 0
M  V30 13 C 2.036909 -2.222304 0.403943 0
M  V30 14 C 3.645220 -1.310784 -0.971590 0
M  V30 15 Cl 1.334341 1.116268 -2.504218 0
M  V30 16 C -0.452942 0.266711 -0.401332 0 RAD=2 VAL=3
M  V30 17 N -1.052797 1.427362 0.155110 0
M  V30 18 C -0.404433 1.381880 1.434885 0
M  V30 19 C -0.456446 -0.131413 1.723448 0
M  V30 20 N -0.965996 -0.760582 0.529239 0
M  V30 21 C -1.670465 -1.967177 0.277425 0
M  V30 22 C -2.150748 -2.274962 -0.959312 0
M  V30 23 C -2.079839 -1.435342 -2.153726 0
M  V30 24 C -2.811076 -3.482961 -1.210216 0
M  V30 25 C -3.013317 -4.424525 -0.228986 0
M  V30 26 C -3.707739 -5.708593 -0.470622 0
M  V30 27 C -2.519677 -4.090101 1.010101 0
M  V30 28 C -1.854678 -2.885496 1.281325 0
M  V30 29 C -1.398416 -2.774014 2.671125 0
M  V30 30 C -2.016577 2.372409 -0.340891 0
M  V30 31 C -3.363914 2.062302 -0.108326 0
M  V30 32 C -3.775505 0.837665 0.607342 0
M  V30 33 C -4.347229 2.947136 -0.571161 0
M  V30 34 C -4.064528 4.107679 -1.243150 0
M  V30 35 C -5.196749 4.964476 -1.682797 0
M  V30 36 C -2.741162 4.389989 -1.458356 0
M  V30 37 C -1.763014 3.543996 -1.017744 0
M  V30 38 C -0.373297 3.904398 -1.277906 0
M  V30 39 H 2.531466 3.010228 0.412204 0
M  V30 40 H 4.689187 3.468364 -0.652304 0
M  V30 41 H 7.056582 3.037766 -0.639031 0
M  V30 42 H 7.871297 0.840827 0.262402 0
M  V30 43 H 6.257587 -0.759094 1.082902 0
M  V30 44 H 2.879095 -0.112426 2.001415 0
M  V30 45 H 3.618460 -2.379048 2.426302 0
M  V30 46 H 4.967658 -1.217780 2.563870 0
M  V30 47 H 4.878097 -2.233986 1.092946 0
M  V30 48 H 1.820759 -2.324404 1.487673 0
M  V30 49 H 2.715164 -3.088600 0.178749 0
M  V30 50 H 1.142633 -2.411980 -0.229329 0
M  V30 51 H 3.021619 -1.425128 -1.907817 0
M  V30 52 H 4.386126 -0.543178 -1.174378 0
M  V30 53 H 4.038744 -2.334292 -0.796898 0
M  V30 54 H 0.619198 1.757840 1.432841 0
M  V30 55 H -1.006268 1.893982 2.228009 0
M  V30 56 H 0.547452 -0.390100 2.021040 0
M  V30 57 H -1.173249 -0.296238 2.567970 0
M  V30 58 H -2.159010 -0.386482 -1.890583 0
M  V30 59 H -2.975111 -1.608154 -2.844029 0
M  V30 60 H -1.228166 -1.738657 -2.783755 0
M  V30 61 H -3.207091 -3.760042 -2.189001 0
M  V30 62 H -4.801753 -5.654021 -0.248761 0
M  V30 63 H -3.211077 -6.531007 0.105124 0
M  V30 64 H -3.614354 -5.980847 -1.532304 0
M  V30 65 H -2.688621 -4.851730 1.788848 0
M  V30 66 H -1.318561 -3.813826 3.150967 0
M  V30 67 H -0.332702 -2.438563 2.744623 0
M  V30 68 H -2.097285 -2.258977 3.342881 0
M  V30 69 H -3.226446 0.690212 1.560237 0
M  V30 70 H -4.840329 0.971629 0.914429 0
M  V30 71 H -3.770131 -0.011556 -0.073070 0
M  V30 72 H -5.370642 2.692010 -0.383242 0
M  V30 73 H -6.094177 4.342061 -1.892086 0
M  V30 74 H -4.885552 5.611725 -2.508957 0
M  V30 75 H -5.447602 5.636091 -0.819492 0
M  V30 76 H -2.485568 5.294068 -1.984428 0
M  V30 77 H -0.104548 3.771288 -2.362718 0
M  V30 78 H 0.292298 3.403941 -0.580817 0
M  V30 79 H -0.289316 5.014503 -1.084340 0
M  V30 END ATOM
M  V30 BEGIN BOND
M  V30 1 1 1 2
M  V30 2 2 2 3
M  V30 3 1 3 4
M  V30 4 2 4 5
M  V30 5 1 5 6
M  V30 6 2 6 7
M  V30 7 1 7 8
M  V30 8 2 8 9
M  V30 9 1 9 10
M  V30 10 1 10 11
M  V30 11 1 10 12
M  V30 12 1 12 13
M  V30 13 1 12 14
M  V30 14 1 2 15
M  V30 15 1 2 16
M  V30 16 1 16 17
M  V30 17 1 17 18
M  V30 18 1 18 19
M  V30 19 1 19 20
M  V30 20 1 20 21
M  V30 21 2 21 22
M  V30 22 1 22 23
M  V30 23 1 22 24
M  V30 24 2 24 25
M  V30 25 1 25 26
M  V30 26 1 25 27
M  V30 27 2 27 28
M  V30 28 1 28 29
M  V30 29 1 17 30
M  V30 30 2 30 31
M  V30 31 1 31 32
M  V30 32 1 31 33
M  V30 33 2 33 34
M  V30 34 1 34 35
M  V30 35 1 34 36
M  V30 36 2 36 37
M  V30 37 1 37 38
M  V30 38 9 12 2
M  V30 39 1 20 16
M  V30 40 1 28 21
M  V30 41 1 37 30
M  V30 42 1 9 4
M  V30 43 1 3 39
M  V30 44 1 5 40
M  V30 45 1 6 41
M  V30 46 1 7 42
M  V30 47 1 8 43
M  V30 48 1 10 44
M  V30 49 1 11 45
M  V30 50 1 11 46
M  V30 51 1 11 47
M  V30 52 1 13 48
M  V30 53 1 13 49
M  V30 54 1 13 50
M  V30 55 1 14 51
M  V30 56 1 14 52
M  V30 57 1 14 53
M  V30 58 1 18 54
M  V30 59 1 18 55
M  V30 60 1 19 56
M  V30 61 1 19 57
M  V30 62 1 23 58
M  V30 63 1 23 59
M  V30 64 1 23 60
M  V30 65 1 24 61
M  V30 66 1 26 62
M  V30 67 1 26 63
M  V30 68 1 26 64
M  V30 69 1 27 65
M  V30 70 1 29 66
M  V30 71 1 29 67
M  V30 72 1 29 68
M  V30 73 1 32 69
M  V30 74 1 32 70
M  V30 75 1 32 71
M  V30 76 1 33 72
M  V30 77 1 35 73
M  V30 78 1 35 74
M  V30 79 1 35 75
M  V30 80 1 36 76
M  V30 81 1 38 77
M  V30 82 1 38 78
M  V30 83 1 38 79
M  V30 END BOND
M  V30 END CTAB
M  END
