
     RDKit          3D

  0  0  0  0  0  0  0  0  0  0999 V3000
M  V30 BEGIN CTAB
M  V30 COUNTS 43 45 0 0 0
M  V30 BEGIN ATOM
M  V30 1 C 2.043966 -2.103443 0.682963 0
M  V30 2 C 1.842989 -0.835335 -0.068026 0
M  V30 3 N 0.952434 0.020244 0.742780 0
M  V30 4 Pt -0.710615 -0.657067 0.643114 0 VAL=4
M  V30 5 N -1.385073 -1.217291 -0.982587 0
M  V30 6 C -2.470983 -0.420926 -1.400861 0
M  V30 7 C -3.557531 -1.082170 -2.185399 0
M  V30 8 C -2.994067 0.462312 -0.325976 0
M  V30 9 C -4.172138 1.174258 -0.460024 0
M  V30 10 C -4.438400 2.072560 0.581675 0
M  V30 11 C -3.579795 2.216959 1.646007 0
M  V30 12 C -2.403173 1.510915 1.792079 0
M  V30 13 C -2.168129 0.634786 0.755446 0
M  V30 14 N -0.935748 -2.059669 2.058402 0
M  V30 15 C -0.906772 -1.496376 3.214077 0
M  V30 16 O -0.687552 -0.960995 4.321950 0
M  V30 17 C 3.072004 -0.066342 -0.380861 0
M  V30 18 C 3.557319 -0.069665 -1.666049 0
M  V30 19 C 4.679048 0.716017 -1.893754 0
M  V30 20 C 5.231592 1.436182 -0.855912 0
M  V30 21 C 4.734462 1.426559 0.418047 0
M  V30 22 C 3.605040 0.647443 0.691870 0
M  V30 23 H 2.876553 -2.742258 0.362659 0
M  V30 24 H 1.107031 -2.722933 0.518264 0
M  V30 25 H 2.019240 -1.938867 1.804351 0
M  V30 26 H 1.261771 -1.066204 -0.986646 0
M  V30 27 H 1.313767 0.091623 1.719817 0
M  V30 28 H 1.065484 0.973041 0.324408 0
M  V30 29 H -1.593569 -2.236078 -0.991082 0
M  V30 30 H -0.622864 -1.120517 -1.727109 0
M  V30 31 H -2.076305 0.376573 -2.171626 0
M  V30 32 H -3.271522 -2.114652 -2.527794 0
M  V30 33 H -4.471958 -1.267374 -1.533148 0
M  V30 34 H -3.955414 -0.513085 -3.036531 0
M  V30 35 H -4.817129 1.035227 -1.298532 0
M  V30 36 H -5.346524 2.663797 0.541380 0
M  V30 37 H -3.773468 2.921028 2.470068 0
M  V30 38 H -1.662271 1.522024 2.547785 0
M  V30 39 H 3.041126 -0.665465 -2.390773 0
M  V30 40 H 5.077738 0.735977 -2.895947 0
M  V30 41 H 6.116411 2.063436 -1.016359 0
M  V30 42 H 5.165347 1.997851 1.251817 0
M  V30 43 H 3.237680 0.657900 1.706036 0
M  V30 END ATOM
M  V30 BEGIN BOND
M  V30 1 1 1 2
M  V30 2 1 2 3
M  V30 3 9 3 4
M  V30 4 9 5 4
M  V30 5 1 5 6
M  V30 6 1 6 7
M  V30 7 1 6 8
M  V30 8 2 8 9
M  V30 9 1 9 10
M  V30 10 2 10 11
M  V30 11 1 11 12
M  V30 12 2 12 13
M  V30 13 1 4 14
M  V30 14 2 14 15
M  V30 15 2 15 16
M  V30 16 1 2 17
M  V30 17 2 17 18
M  V30 18 1 18 19
M  V30 19 2 19 20
M  V30 20 1 20 21
M  V30 21 2 21 22
M  V30 22 1 13 4
M  V30 23 1 22 17
M  V30 24 1 13 8
M  V30 25 1 1 23
M  V30 26 1 1 24
M  V30 27 1 1 25
M  V30 28 1 2 26
M  V30 29 1 3 27
M  V30 30 1 3 28
M  V30 31 1 5 29
M  V30 32 1 5 30
M  V30 33 1 6 31
M  V30 34 1 7 32
M  V30 35 1 7 33
M  V30 36 1 7 34
M  V30 37 1 9 35
M  V30 38 1 10 36
M  V30 39 1 11 37
M  V30 40 1 12 38
M  V30 41 1 18 39
M  V30 42 1 19 40
M  V30 43 1 20 41
M  V30 44 1 21 42
M  V30 45 1 22 43
M  V30 END BOND
M  V30 END CTAB
M  END
