
     RDKit          3D

 28 28  0  0  0  0  0  0  0  0999 V2000
   -2.7541   -1.7841   -0.5010 C   0  0  0  0  0  0  0  0  0  0  0  0
   -2.5536   -0.9478    0.7575 C   0  0  0  0  0  0  0  0  0  0  0  0
   -1.9967    0.4429    0.4523 C   0  0  0  0  0  0  0  0  0  0  0  0
   -0.5333    0.5622    0.3042 C   0  0  0  0  0  0  0  0  0  0  0  0
    0.3719   -0.4295    0.3750 C   0  0  0  0  0  0  0  0  0  0  0  0
    1.8182   -0.2189    0.2030 C   0  0  0  0  0  0  0  0  0  0  0  0
    2.5555   -1.1591   -0.5324 C   0  0  0  0  0  0  0  0  0  0  0  0
    3.9347   -1.0082   -0.6945 C   0  0  0  0  0  0  0  0  0  0  0  0
    4.5784    0.0762   -0.1122 C   0  0  0  0  0  0  0  0  0  0  0  0
    5.9010    0.2194   -0.2662 F   0  0  0  0  0  0  0  0  0  0  0  0
    3.8702    1.0106    0.6329 C   0  0  0  0  0  0  0  0  0  0  0  0
    2.4907    0.8608    0.7956 C   0  0  0  0  0  0  0  0  0  0  0  0
   -2.8190    1.5231    0.3435 C   0  0  0  0  0  0  0  0  0  0  0  0
   -2.3307    2.8386    0.0829 C   0  0  0  0  0  0  0  0  0  0  0  0
   -1.9191    3.9038   -0.1248 N   0  0  0  0  0  0  0  0  0  0  0  0
   -4.2355    1.4027    0.4704 C   0  0  0  0  0  0  0  0  0  0  0  0
   -5.3859    1.2898    0.5740 N   0  0  0  0  0  0  0  0  0  0  0  0
   -3.1590   -2.7666   -0.2373 H   0  0  0  0  0  0  0  0  0  0  0  0
   -3.4599   -1.3033   -1.1865 H   0  0  0  0  0  0  0  0  0  0  0  0
   -1.8144   -1.9430   -1.0388 H   0  0  0  0  0  0  0  0  0  0  0  0
   -1.9059   -1.4787    1.4651 H   0  0  0  0  0  0  0  0  0  0  0  0
   -3.5130   -0.8836    1.2843 H   0  0  0  0  0  0  0  0  0  0  0  0
   -0.1452    1.5609    0.0984 H   0  0  0  0  0  0  0  0  0  0  0  0
    0.0871   -1.4641    0.5403 H   0  0  0  0  0  0  0  0  0  0  0  0
    2.0613   -2.0118   -0.9930 H   0  0  0  0  0  0  0  0  0  0  0  0
    4.5084   -1.7284   -1.2690 H   0  0  0  0  0  0  0  0  0  0  0  0
    4.3947    1.8458    1.0860 H   0  0  0  0  0  0  0  0  0  0  0  0
    1.9530    1.5903    1.3969 H   0  0  0  0  0  0  0  0  0  0  0  0
  1  2  1  0
  2  3  1  0
  3  4  1  0
  4  5  2  3
  5  6  1  0
  6  7  2  0
  7  8  1  0
  8  9  2  0
  9 10  1  0
  9 11  1  0
 11 12  2  0
  3 13  2  3
 13 14  1  0
 14 15  3  0
 13 16  1  0
 16 17  3  0
 12  6  1  0
  1 18  1  0
  1 19  1  0
  1 20  1  0
  2 21  1  0
  2 22  1  0
  4 23  1  0
  5 24  1  0
  7 25  1  0
  8 26  1  0
 11 27  1  0
 12 28  1  0
M  END
