
     RDKit          3D

 35 38  0  0  0  0  0  0  0  0999 V2000
   -4.1346    2.4851    0.6891 F   0  0  0  0  0  0  0  0  0  0  0  0
   -4.6487    1.4219    0.0101 C   0  0  0  0  0  0  0  0  0  0  0  0
   -4.9773    1.8857   -1.2264 F   0  0  0  0  0  0  0  0  0  0  0  0
   -5.8308    1.1312    0.6244 F   0  0  0  0  0  0  0  0  0  0  0  0
   -3.7084    0.2431   -0.0454 C   0  0  0  0  0  0  0  0  0  0  0  0
   -4.2000   -1.0658   -0.0221 C   0  0  0  0  0  0  0  0  0  0  0  0
   -3.3196   -2.1407   -0.0822 C   0  0  0  0  0  0  0  0  0  0  0  0
   -1.9414   -1.9186   -0.1779 C   0  0  0  0  0  0  0  0  0  0  0  0
   -1.4110   -0.6190   -0.2284 C   0  0  0  0  0  0  0  0  0  0  0  0
   -2.3192    0.4498   -0.1511 C   0  0  0  0  0  0  0  0  0  0  0  0
    0.0119   -0.3823   -0.3091 N   0  0  0  0  0  0  0  0  0  0  0  0
    0.9114   -1.5187   -0.0730 C   0  0  0  0  0  0  0  0  0  0  0  0
    2.3732   -1.1728    0.2190 C   0  0  0  0  0  0  0  0  0  0  0  0
    3.3347   -2.6840    0.1628 Cl  0  0  0  0  0  0  0  0  0  0  0  0
    2.5238   -0.5990    1.5397 O   0  0  0  0  0  0  0  0  0  0  0  0
    3.2223    0.6597    1.3315 C   0  0  0  0  0  0  0  0  0  0  0  0
    4.0824    1.2293    2.9349 Br  0  0  0  0  0  0  0  0  0  0  0  0
    2.1676    1.6316    0.8112 C   0  0  0  0  0  0  0  0  0  0  0  0
    1.9705    1.1014   -0.6252 C   0  0  0  0  0  0  0  0  0  0  0  0
    2.9471   -0.0929   -0.6984 C   0  0  0  0  0  0  0  0  0  0  0  0
    4.1395    0.3654    0.1509 C   0  0  0  0  0  0  0  0  0  0  0  0
    5.2938    1.9186   -0.6782 I   0  0  0  0  0  0  0  0  0  0  0  0
    0.5130    0.7809   -0.8958 C   0  0  0  0  0  0  0  0  0  0  0  0
   -0.1476    1.5889   -1.5477 O   0  0  0  0  0  0  0  0  0  0  0  0
   -5.2709   -1.2516    0.0477 H   0  0  0  0  0  0  0  0  0  0  0  0
   -3.7039   -3.1582   -0.0602 H   0  0  0  0  0  0  0  0  0  0  0  0
   -1.3095   -2.7994   -0.2405 H   0  0  0  0  0  0  0  0  0  0  0  0
   -1.9647    1.4796   -0.1456 H   0  0  0  0  0  0  0  0  0  0  0  0
    0.5261   -2.0825    0.7857 H   0  0  0  0  0  0  0  0  0  0  0  0
    0.8566   -2.1404   -0.9762 H   0  0  0  0  0  0  0  0  0  0  0  0
    2.5163    2.6701    0.7935 H   0  0  0  0  0  0  0  0  0  0  0  0
    1.2461    1.5971    1.4039 H   0  0  0  0  0  0  0  0  0  0  0  0
    2.2661    1.8692   -1.3509 H   0  0  0  0  0  0  0  0  0  0  0  0
    3.1617   -0.4222   -1.7184 H   0  0  0  0  0  0  0  0  0  0  0  0
    4.8232   -0.4605    0.3775 H   0  0  0  0  0  0  0  0  0  0  0  0
  1  2  1  0
  2  3  1  0
  2  4  1  0
  2  5  1  0
  5  6  2  0
  6  7  1  0
  7  8  2  0
  8  9  1  0
  9 10  2  0
  9 11  1  0
 11 12  1  0
 12 13  1  0
 13 14  1  0
 13 15  1  0
 15 16  1  0
 16 17  1  0
 16 18  1  0
 18 19  1  0
 19 20  1  0
 20 21  1  0
 21 22  1  0
 19 23  1  0
 23 24  2  0
 10  5  1  0
 23 11  1  0
 20 13  1  0
 21 16  1  0
  6 25  1  0
  7 26  1  0
  8 27  1  0
 10 28  1  0
 12 29  1  0
 12 30  1  0
 18 31  1  0
 18 32  1  0
 19 33  1  0
 20 34  1  0
 21 35  1  0
M  END
