
 OpenBabel09252517133D

 49 54  0  0  1  0  0  0  0  0999 V2000
    1.0650    0.0358    0.0671 H   0  0  0  0  0  0  0  0  0  0  0  0
    2.1350    0.0358    0.0671 C   0  0  0  0  0  3  0  0  0  0  0  0
    2.6417   -1.2704   -0.5224 C   0  0  0  0  0  3  0  0  0  0  0  0
    3.7117   -1.2704   -0.5224 H   0  0  0  0  0  0  0  0  0  0  0  0
    2.1350   -2.4341    0.3141 C   0  0  0  0  0  3  0  0  0  0  0  0
    3.3080   -3.3207    0.8054 C   0  0  0  0  0  3  0  0  0  0  0  0
    4.3853   -3.4312   -0.2612 C   0  0  0  0  0  3  0  0  0  0  0  0
    2.6417    0.1784    1.4930 C   0  0  0  0  0  3  0  0  0  0  0  0
    3.2960    0.9957    1.7139 H   0  0  0  0  0  0  0  0  0  0  0  0
    5.0077   -2.0645   -0.4961 C   0  0  0  0  0  0  0  0  0  0  0  0
    5.8396   -1.5708   -0.9534 H   0  0  0  0  0  0  0  0  0  0  0  0
    4.9938   -1.0366   -0.7929 H   0  0  0  0  0  0  0  0  0  0  0  0
    2.9667   -6.1981    3.0105 P   0  0  0  0  0  0  0  0  0  0  0  0
    1.3028   -6.0016    3.7465 C   0  0  0  0  0  0  0  0  0  0  0  0
    1.3890   -5.2817    4.8615 F   0  0  0  0  0  0  0  0  0  0  0  0
    0.5081   -5.3816    2.8788 F   0  0  0  0  0  0  0  0  0  0  0  0
    0.8001   -7.1998    4.0302 F   0  0  0  0  0  0  0  0  0  0  0  0
    4.2452   -7.4677    3.3302 C   0  0  0  0  0  0  0  0  0  0  0  0
    3.7103   -8.6391    3.6630 F   0  0  0  0  0  0  0  0  0  0  0  0
    4.9757   -7.6111    2.2281 F   0  0  0  0  0  0  0  0  0  0  0  0
    5.0191   -7.0360    4.3220 F   0  0  0  0  0  0  0  0  0  0  0  0
    2.6570   -4.6880    1.0677 Ir  0  0  0  0  0  0  0  0  0  0  0  0
    2.3420   -4.8583    2.5301 C   0  0  0  0  0  0  0  0  0  0  0  0
    2.1312   -5.8391    2.9023 H   0  0  0  0  0  0  0  0  0  0  0  0
    1.9041   -4.2282    3.2759 H   0  0  0  0  0  0  0  0  0  0  0  0
    3.0233   -5.9398    2.9552 C   0  0  1  0  0  0  0  0  0  0  0  0
    2.4051   -5.4359    3.6685 H   0  0  0  0  0  0  0  0  0  0  0  0
    3.7970   -6.5224    1.8614 C   0  0  2  0  0  0  0  0  0  0  0  0
    4.8725   -5.9545    0.9497 C   0  0  0  0  0  0  0  0  0  0  0  0
    4.6648   -6.2791   -0.0486 H   0  0  0  0  0  0  0  0  0  0  0  0
    4.8266   -4.8864    0.9942 H   0  0  0  0  0  0  0  0  0  0  0  0
    5.8504   -6.2817    1.2349 H   0  0  0  0  0  0  0  0  0  0  0  0
    3.6008   -5.8062    0.7134 C   0  0  0  0  0  0  0  0  0  0  0  0
    4.3494   -5.1299    0.3566 H   0  0  0  0  0  0  0  0  0  0  0  0
    2.6468   -5.9075    1.1872 H   0  0  0  0  0  0  0  0  0  0  0  0
    1.3823   -4.7548    0.2200 P   0  0  0  0  0  0  0  0  0  0  0  0
    2.3418   -5.9136    1.2619 C   0  0  0  0  0  0  0  0  0  0  0  0
    1.5547   -6.4657    2.1809 F   0  0  0  0  0  0  0  0  0  0  0  0
    2.8621   -6.8664    0.4935 F   0  0  0  0  0  0  0  0  0  0  0  0
    3.3216   -5.2437    1.8620 F   0  0  0  0  0  0  0  0  0  0  0  0
    0.8324   -3.5613   -1.0536 C   0  0  0  0  0  0  0  0  0  0  0  0
   -0.1822   -4.1169   -1.7098 F   0  0  0  0  0  0  0  0  0  0  0  0
    0.4158   -2.4514   -0.4507 F   0  0  0  0  0  0  0  0  0  0  0  0
    1.8043   -3.2622   -1.9109 F   0  0  0  0  0  0  0  0  0  0  0  0
    1.2975   -3.4155   -0.5446 C   0  0  0  0  0  0  0  0  0  0  0  0
    0.6119   -3.8911   -1.2145 H   0  0  0  0  0  0  0  0  0  0  0  0
    1.3582   -2.5091   -1.1100 H   0  0  0  0  0  0  0  0  0  0  0  0
    2.7255   -7.4698    3.4889 H   0  0  0  0  0  0  0  0  0  0  0  0
    0.8680   -4.6402   -1.0554 H   0  0  0  0  0  0  0  0  0  0  0  0
  1  2  1  0  0  0  0
  2  3  1  0  0  0  0
  2  8  1  0  0  0  0
  3  5  1  0  0  0  0
  3  4  1  0  0  0  0
  5  6  1  0  0  0  0
  5 45  1  0  0  0  0
  6  7  1  0  0  0  0
  6 22  1  0  0  0  0
  7  8  1  0  0  0  0
  7 10  1  0  0  0  0
  8  9  1  0  0  0  0
 10 13  1  0  0  0  0
 10 11  1  0  0  0  0
 10 12  1  0  0  0  0
 13 22  1  0  0  0  0
 13 14  1  0  0  0  0
 13 18  1  0  0  0  0
 13 48  1  0  0  0  0
 14 15  1  0  0  0  0
 14 16  1  0  0  0  0
 14 17  1  0  0  0  0
 18 19  1  0  0  0  0
 18 20  1  0  0  0  0
 18 21  1  0  0  0  0
 22 23  1  0  0  0  0
 22 26  1  0  0  0  0
 22 28  1  0  0  0  0
 22 33  1  0  0  0  0
 22 36  1  0  0  0  0
 23 26  2  0  0  0  0
 23 24  1  0  0  0  0
 23 25  1  0  0  0  0
 26 28  1  0  0  0  0
 26 27  1  1  0  0  0
 28 33  2  0  0  0  0
 28 29  1  1  0  0  0
 29 30  1  0  0  0  0
 29 31  1  0  0  0  0
 29 32  1  0  0  0  0
 33 34  1  0  0  0  0
 33 35  1  0  0  0  0
 36 45  1  0  0  0  0
 36 37  1  0  0  0  0
 36 41  1  0  0  0  0
 36 49  1  0  0  0  0
 37 38  1  0  0  0  0
 37 39  1  0  0  0  0
 37 40  1  0  0  0  0
 41 42  1  0  0  0  0
 41 43  1  0  0  0  0
 41 44  1  0  0  0  0
 45 46  1  0  0  0  0
 45 47  1  0  0  0  0
M  END
$$$$
