
     RDKit          3D

  0  0  0  0  0  0  0  0  0  0999 V3000
M  V30 BEGIN CTAB
M  V30 COUNTS 43 45 0 0 0
M  V30 BEGIN ATOM
M  V30 1 C 1.636970 -1.249983 2.352426 0
M  V30 2 C 1.369841 -0.535413 0.993357 0
M  V30 3 N 0.585399 -1.449533 0.183471 0
M  V30 4 Pt -0.570622 -0.587848 -0.898687 0 VAL=4
M  V30 5 N -0.611229 1.270193 -0.919322 0
M  V30 6 C -1.886659 1.780842 -0.699045 0
M  V30 7 C -1.969791 2.856625 0.360299 0
M  V30 8 C -2.893624 0.724182 -0.320283 0
M  V30 9 C -4.152862 1.094869 0.019210 0
M  V30 10 C -5.095288 0.069580 0.155898 0
M  V30 11 C -4.630171 -1.208251 -0.072233 0
M  V30 12 C -3.350317 -1.617486 -0.418356 0
M  V30 13 C -2.458828 -0.561938 -0.535541 0
M  V30 14 N -0.368057 -1.316689 -2.853107 0
M  V30 15 C -0.927772 -2.452982 -2.892350 0
M  V30 16 O -1.464901 -3.561764 -2.866855 0
M  V30 17 C 2.687993 -0.164591 0.458448 0
M  V30 18 C 3.100913 1.052897 -0.038980 0
M  V30 19 C 4.316979 1.418493 -0.495323 0
M  V30 20 C 5.349343 0.493827 -0.497496 0
M  V30 21 C 5.016838 -0.752504 -0.013244 0
M  V30 22 C 3.766591 -1.066819 0.435925 0
M  V30 23 H 1.818530 -2.325603 2.047038 0
M  V30 24 H 0.706319 -1.193330 2.943381 0
M  V30 25 H 2.515053 -0.764369 2.787005 0
M  V30 26 H 0.733206 0.319574 1.229193 0
M  V30 27 H 0.033346 -2.023206 0.851009 0
M  V30 28 H 1.233487 -2.116530 -0.283207 0
M  V30 29 H 0.084104 1.552298 -0.197167 0
M  V30 30 H -0.163438 1.605696 -1.821123 0
M  V30 31 H -2.295365 2.304463 -1.648237 0
M  V30 32 H -2.989327 3.195534 0.495595 0
M  V30 33 H -1.206199 3.658344 0.255130 0
M  V30 34 H -1.695201 2.349602 1.359347 0
M  V30 35 H -4.546832 2.071867 0.195325 0
M  V30 36 H -6.158120 0.190167 0.418860 0
M  V30 37 H -5.347040 -2.029380 0.023872 0
M  V30 38 H -2.940298 -2.569262 -0.596200 0
M  V30 39 H 2.364074 1.850612 -0.086367 0
M  V30 40 H 4.545540 2.414676 -0.877136 0
M  V30 41 H 6.319667 0.804761 -0.863120 0
M  V30 42 H 5.860497 -1.460030 -0.014940 0
M  V30 43 H 3.677251 -2.071589 0.781243 0
M  V30 END ATOM
M  V30 BEGIN BOND
M  V30 1 1 1 2
M  V30 2 1 2 3
M  V30 3 9 3 4
M  V30 4 9 5 4
M  V30 5 1 5 6
M  V30 6 1 6 7
M  V30 7 1 6 8
M  V30 8 2 8 9
M  V30 9 1 9 10
M  V30 10 2 10 11
M  V30 11 1 11 12
M  V30 12 2 12 13
M  V30 13 1 4 14
M  V30 14 2 14 15
M  V30 15 2 15 16
M  V30 16 1 2 17
M  V30 17 2 17 18
M  V30 18 1 18 19
M  V30 19 2 19 20
M  V30 20 1 20 21
M  V30 21 2 21 22
M  V30 22 1 13 4
M  V30 23 1 22 17
M  V30 24 1 13 8
M  V30 25 1 1 23
M  V30 26 1 1 24
M  V30 27 1 1 25
M  V30 28 1 2 26
M  V30 29 1 3 27
M  V30 30 1 3 28
M  V30 31 1 5 29
M  V30 32 1 5 30
M  V30 33 1 6 31
M  V30 34 1 7 32
M  V30 35 1 7 33
M  V30 36 1 7 34
M  V30 37 1 9 35
M  V30 38 1 10 36
M  V30 39 1 11 37
M  V30 40 1 12 38
M  V30 41 1 18 39
M  V30 42 1 19 40
M  V30 43 1 20 41
M  V30 44 1 21 42
M  V30 45 1 22 43
M  V30 END BOND
M  V30 END CTAB
M  END
