
     RDKit          3D

 26 26  0  0  0  0  0  0  0  0999 V2000
    1.2188   -0.1961   -0.7933 C   0  0  0  0  0  0  0  0  0  0  0  0
    2.5904   -0.3091   -1.0484 C   0  0  0  0  0  0  0  0  0  0  0  0
    3.5127    0.1168   -0.0827 C   0  0  0  0  0  0  0  0  0  0  0  0
    4.9526   -0.0010   -0.3484 N   0  0  0  0  0  4  0  0  0  0  0  0
    5.7344    0.3869    0.5311 O   0  0  0  0  0  1  0  0  0  0  0  0
    5.2994   -0.4815   -1.4366 O   0  0  0  0  0  0  0  0  0  0  0  0
    3.0716    0.6539    1.1336 C   0  0  0  0  0  0  0  0  0  0  0  0
    1.6991    0.7634    1.3807 C   0  0  0  0  0  0  0  0  0  0  0  0
    0.7652    0.3405    0.4217 C   0  0  0  0  0  0  0  0  0  0  0  0
   -0.6825    0.4822    0.7424 C   0  0  0  0  0  0  0  0  0  0  0  0
   -1.0932    0.9464    1.7934 O   0  0  0  0  0  0  0  0  0  0  0  0
   -1.4422    0.0276   -0.2836 O   0  0  0  0  0  0  0  0  0  0  0  0
   -2.8686    0.1057   -0.0992 C   0  0  0  0  0  0  0  0  0  0  0  0
   -3.3506   -1.1174    0.6725 C   0  0  0  0  0  0  0  0  0  0  0  0
   -3.4980    0.1512   -1.4861 C   0  0  0  0  0  0  0  0  0  0  0  0
    0.5151   -0.5311   -1.5528 H   0  0  0  0  0  0  0  0  0  0  0  0
    2.9191   -0.7284   -1.9978 H   0  0  0  0  0  0  0  0  0  0  0  0
    3.7748    0.9892    1.8939 H   0  0  0  0  0  0  0  0  0  0  0  0
    1.3592    1.1816    2.3279 H   0  0  0  0  0  0  0  0  0  0  0  0
   -3.1369    1.0256    0.4346 H   0  0  0  0  0  0  0  0  0  0  0  0
   -4.4391   -1.1110    0.7853 H   0  0  0  0  0  0  0  0  0  0  0  0
   -2.9017   -1.1511    1.6706 H   0  0  0  0  0  0  0  0  0  0  0  0
   -3.0549   -2.0422    0.1648 H   0  0  0  0  0  0  0  0  0  0  0  0
   -4.5889    0.2112   -1.4267 H   0  0  0  0  0  0  0  0  0  0  0  0
   -3.1304    1.0206   -2.0420 H   0  0  0  0  0  0  0  0  0  0  0  0
   -3.2253   -0.7339   -2.0717 H   0  0  0  0  0  0  0  0  0  0  0  0
  1  2  2  0
  2  3  1  0
  3  4  1  0
  4  5  1  0
  4  6  2  0
  3  7  2  0
  7  8  1  0
  8  9  2  0
  9 10  1  0
 10 11  2  0
 10 12  1  0
 12 13  1  0
 13 14  1  0
 13 15  1  0
  9  1  1  0
  1 16  1  0
  2 17  1  0
  7 18  1  0
  8 19  1  0
 13 20  1  0
 14 21  1  0
 14 22  1  0
 14 23  1  0
 15 24  1  0
 15 25  1  0
 15 26  1  0
M  CHG  2   4   1   5  -1
M  END
