
  --CCDC--092525    3D                              

 42 41  0  0  0  0  0  0  0  0999 V2000
    0.1739   -0.0295    0.2308 C      0
    2.0377    0.0127   -0.5976 Pt     0
    1.1481   -0.1241   -2.4283 C      0
    2.1680   -2.0168   -0.4344 C      0
    2.9284    0.1493    1.2331 N      0
    3.4377   -0.8662    1.7673 N      3
    3.9916   -1.7973    2.1320 N      5
    1.9278    2.4223   -0.6236 P      0
    1.4127    3.0222   -2.2511 C      0
    3.5213    3.1553   -0.1814 C      0
    0.7043    2.9735    0.5893 C      0
    4.1686    0.0172   -1.7289 P      0
    4.4807   -1.6205   -2.4308 C      0
    5.5044    0.3951   -0.5686 C      0
    4.1900    1.2143   -3.0849 C      0
   -0.4643    0.6920   -0.2751 H      0
   -0.2487   -1.0261    0.1220 H      0
    0.2405    0.2228    1.2870 H      0
    1.2841   -1.1287   -2.8235 H      0
    1.6000    0.5967   -3.1063 H      0
    0.0851    0.0866   -2.3314 H      0
    1.5700   -2.3514    0.4106 H      0
    3.2055   -2.3052   -0.2806 H      0
    1.7956   -2.4780   -1.3468 H      0
    0.5518    2.4632   -2.6117 H      0
    2.2121    2.9176   -2.9802 H      0
    1.1363    4.0734   -2.2028 H      0
    4.3119    2.8018   -0.8388 H      0
    3.7923    2.8969    0.8401 H      0
    3.4795    4.2400   -0.2555 H      0
    0.9729    2.6369    1.5884 H      0
   -0.2807    2.5774    0.3515 H      0
    0.6382    4.0594    0.6039 H      0
    3.5673   -2.0438   -2.8434 H      0
    4.8580   -2.3023   -1.6718 H      0
    5.2177   -1.5629   -3.2291 H      0
    5.7107   -0.4601    0.0716 H      0
    5.2455    1.2379    0.0674 H      0
    6.4185    0.6446   -1.1034 H      0
    4.0422    2.2267   -2.7169 H      0
    3.4004    0.9978   -3.8013 H      0
    5.1414    1.1815   -3.6116 H      0
  1  2  1
  2  3  1
  2  4  1
  2  5  1
  5  6  2
  6  7  2
  2  8  1
  8  9  1
  8 10  1
  8 11  1
  2 12  1
 12 13  1
 12 14  1
 12 15  1
  1 16  1
  1 17  1
  1 18  1
  3 19  1
  3 20  1
  3 21  1
  4 22  1
  4 23  1
  4 24  1
  9 25  1
  9 26  1
  9 27  1
 10 28  1
 10 29  1
 10 30  1
 11 31  1
 11 32  1
 11 33  1
 13 34  1
 13 35  1
 13 36  1
 14 37  1
 14 38  1
 14 39  1
 15 40  1
 15 41  1
 15 42  1
M  CHG  2   6   1   7  -1
M  END
$$$$
