
     RDKit          3D

 46 54  0  0  0  0  0  0  0  0999 V2000
   -0.6914   -2.7952   -1.0623 Cl  0  0  0  0  0  0  0  0  0  0  0  0
   -0.3953   -0.9244   -0.0256 Ir  0  0  0  0  0  9  0  0  0  0  0  0
    0.5202   -2.1487    1.2158 C   0  0  0  0  0  0  0  0  0  0  0  0
    1.0066   -1.0104    1.1494 C   0  0  0  0  0  0  0  0  0  0  0  0
    1.8943    0.1920    1.3705 C   0  0  0  0  0  0  0  0  0  0  0  0
    2.6728    0.8492    2.2852 C   0  0  0  0  0  0  0  0  0  0  0  0
    3.6589    1.6497    1.7484 C   0  0  0  0  0  0  0  0  0  0  0  0
    3.8769    1.7973    0.4053 C   0  0  0  0  0  0  0  0  0  0  0  0
    3.0403    1.1108   -0.4269 C   0  0  0  0  0  0  0  0  0  0  0  0
    3.4866    1.1206   -1.7753 C   0  0  0  0  0  0  0  0  0  0  0  0
    2.8673    0.3083   -2.7241 C   0  0  0  0  0  0  0  0  0  0  0  0
    1.7973   -0.4834   -2.2747 C   0  0  0  0  0  0  0  0  0  0  0  0
    1.2657   -0.5690   -0.9839 C   0  0  0  0  0  0  0  0  0  0  0  0
    1.9406    0.2497   -0.0393 C   0  0  0  0  0  0  0  0  0  0  0  0
   -1.7666   -1.2729    0.7864 C   0  0  0  0  0  0  0  0  0  0  0  0
   -2.4189   -2.1181    1.7110 C   0  0  0  0  0  0  0  0  0  0  0  0
   -2.0282   -1.2645   -0.5608 C   0  0  0  0  0  0  0  0  0  0  0  0
   -3.3764   -0.7719   -0.6395 C   0  0  0  0  0  0  0  0  0  0  0  0
   -1.2684   -0.2523   -1.1281 C   0  0  0  0  0  0  0  0  0  0  0  0
   -1.4461    0.0768   -2.5302 C   0  0  0  0  0  0  0  0  0  0  0  0
   -1.0095    0.6047   -0.1067 C   0  0  0  0  0  0  0  0  0  0  0  0
   -0.6575    1.9666   -0.4206 C   0  0  0  0  0  0  0  0  0  0  0  0
   -1.3392    0.0216    1.0606 C   0  0  0  0  0  0  0  0  0  0  0  0
   -1.6635    0.5094    2.3150 C   0  0  0  0  0  0  0  0  0  0  0  0
    0.8108   -3.0739    1.8285 H   0  0  0  0  0  0  0  0  0  0  0  0
    2.3532    0.6078    3.2607 H   0  0  0  0  0  0  0  0  0  0  0  0
    4.2362    2.1438    2.5111 H   0  0  0  0  0  0  0  0  0  0  0  0
    4.6574    2.4157    0.0508 H   0  0  0  0  0  0  0  0  0  0  0  0
    4.2757    1.6910   -2.2062 H   0  0  0  0  0  0  0  0  0  0  0  0
    3.0095    0.1292   -3.7676 H   0  0  0  0  0  0  0  0  0  0  0  0
    1.2516   -1.1410   -2.9219 H   0  0  0  0  0  0  0  0  0  0  0  0
   -3.2489   -2.6770    1.2544 H   0  0  0  0  0  0  0  0  0  0  0  0
   -1.7097   -2.9247    2.0801 H   0  0  0  0  0  0  0  0  0  0  0  0
   -2.7175   -1.5870    2.6095 H   0  0  0  0  0  0  0  0  0  0  0  0
   -3.6973   -0.7699   -1.7023 H   0  0  0  0  0  0  0  0  0  0  0  0
   -3.6180    0.2294   -0.2301 H   0  0  0  0  0  0  0  0  0  0  0  0
   -4.0893   -1.5095   -0.1654 H   0  0  0  0  0  0  0  0  0  0  0  0
   -2.4453    0.4863   -2.6283 H   0  0  0  0  0  0  0  0  0  0  0  0
   -1.4302   -0.8661   -3.1499 H   0  0  0  0  0  0  0  0  0  0  0  0
   -0.6922    0.7291   -3.0056 H   0  0  0  0  0  0  0  0  0  0  0  0
   -0.2114    2.1383   -1.4178 H   0  0  0  0  0  0  0  0  0  0  0  0
    0.0468    2.3568    0.3719 H   0  0  0  0  0  0  0  0  0  0  0  0
   -1.5535    2.6039   -0.3208 H   0  0  0  0  0  0  0  0  0  0  0  0
   -1.0113    1.4130    2.5338 H   0  0  0  0  0  0  0  0  0  0  0  0
   -2.7053    0.8774    2.4270 H   0  0  0  0  0  0  0  0  0  0  0  0
   -1.4776   -0.1187    3.2387 H   0  0  0  0  0  0  0  0  0  0  0  0
  1  2  1  0
  2  3  1  0
  3  4  2  0
  4  5  1  0
  5  6  2  0
  6  7  1  0
  7  8  2  0
  8  9  1  0
  9 10  2  0
 10 11  1  0
 11 12  2  0
 12 13  1  0
 13 14  2  0
  2 15  1  0
 15 16  1  0
 15 17  1  0
 17 18  1  0
 17 19  1  0
 19 20  1  0
 19 21  1  0
 21 22  1  0
 21 23  1  0
 23 24  1  0
  4  2  1  0
 14  5  1  0
 23 15  1  0
 13  2  1  0
 17  2  1  0
 19  2  1  0
 21  2  1  0
 23  2  1  0
 14  9  1  0
  3 25  1  0
  6 26  1  0
  7 27  1  0
  8 28  1  0
 10 29  1  0
 11 30  1  0
 12 31  1  0
 16 32  1  0
 16 33  1  0
 16 34  1  0
 18 35  1  0
 18 36  1  0
 18 37  1  0
 20 38  1  0
 20 39  1  0
 20 40  1  0
 22 41  1  0
 22 42  1  0
 22 43  1  0
 24 44  1  0
 24 45  1  0
 24 46  1  0
M  END
