
  --CCDC--092525    3D                              

114121  0  0  0  0  0  0  0  0999 V2000
    2.7623   -2.7024    0.5937 C      0
    3.8805   -1.9023    0.3090 O      0
    4.6780   -2.4135   -0.7387 C      0
    4.1941   -1.8294   -2.0419 C      0
    4.4637   -0.4427   -2.0653 O      0
    5.7902   -0.1781   -2.4221 C      0
    3.5760    0.7220    0.1312 Eu     0
    1.2046   -0.4645    0.3731 N      0
    0.0346   -1.1008    0.4741 C      0
   -1.4643   -1.9161    0.6035 S      0
    1.8172    2.3434    1.3119 N      0
    1.2937    1.8030    2.5661 C      0
    0.0010    1.9690    3.1226 C      0
   -0.7958    0.8339    3.2170 C      0
   -0.1862   -0.3895    3.3761 C      0
    1.1900   -0.4073    3.4916 C      0
    1.9561    0.7337    3.2075 C      0
    3.4091    0.7797    3.6367 C      0
    3.9646   -0.6199    3.9121 C      0
    3.5882    1.6167    4.9018 C      0
   -0.5169    3.0990    3.9847 C      0
   -0.6371    2.6522    5.4411 C      0
   -1.7096    3.7839    3.3111 C      0
    1.4804    3.5223    0.4835 C      0
    1.9074    3.5823   -0.8761 C      0
    2.7065    2.5819   -1.5089 N      0
    3.1816    2.5436   -2.8571 C      0
    2.5383    1.7364   -3.8173 C      0
    3.2465    1.4249   -4.9820 C      0
    4.5066    1.9405   -5.2203 C      0
    5.0256    2.8850   -4.3573 C      0
    4.3445    3.2581   -3.2020 C      0
    4.8990    4.4187   -2.3977 C      0
    4.9895    5.6501   -3.2990 C      0
    6.3058    4.1291   -1.8749 C      0
    1.1139    1.2337   -3.6333 C      0
    0.2332    1.7926   -4.7490 C      0
    0.9850   -0.2893   -3.6735 C      0
    1.3699    4.7491   -1.5763 C      0
    1.4263    5.2996   -2.8380 C      0
    0.6353    6.3917   -3.1664 C      0
   -0.1789    6.9855   -2.2474 C      0
   -0.1849    6.5226   -0.9115 C      0
   -0.8847    7.1307    0.1474 C      0
   -0.6910    6.6514    1.4049 C      0
    0.1237    5.5548    1.6652 C      0
    0.6855    4.7754    0.6721 C      0
    0.5836    5.3753   -0.6057 C      0
    5.6498    0.2892    1.7544 O      0
    6.5186   -0.7771    1.4552 C      0
    6.3845    1.4212    2.1666 C      0
    6.6220    2.2411    0.9410 C      0
    5.3429    2.6644    0.5372 O      0
    4.9010    3.8061    1.2267 C      0
    2.0405   -2.6766   -0.2205 H      0
    2.2632   -2.3523    1.4957 H      0
    3.0639   -3.7361    0.7521 H      0
    4.6109   -3.5087   -0.7546 H      0
    5.7327   -2.1604   -0.5751 H      0
    4.6959   -2.3142   -2.8878 H      0
    3.1178   -2.0107   -2.1527 H      0
    6.4765   -0.5814   -1.6799 H      0
    5.9600    0.8943   -2.4922 H      0
    6.0137   -0.6379   -3.3813 H      0
   -1.8765    0.9171    3.2806 H      0
   -0.7689   -1.3010    3.4628 H      0
    1.6533   -1.3350    3.8098 H      0
    3.9665    1.2786    2.8355 H      0
    5.0267   -0.5761    4.1462 H      0
    3.8427   -1.2543    3.0377 H      0
    3.4400   -1.0944    4.7403 H      0
    4.6401    1.6599    5.1765 H      0
    3.0372    1.1910    5.7385 H      0
    3.2397    2.6350    4.7439 H      0
    0.2680    3.8715    4.0045 H      0
    0.3005    2.2152    5.7772 H      0
   -1.3909    1.8771    5.5454 H      0
   -0.8836    3.4822    6.0994 H      0
   -1.6677    4.8653    3.4257 H      0
   -2.6501    3.4285    3.7234 H      0
   -1.7246    3.5546    2.2463 H      0
    2.8157    0.7652   -5.7268 H      0
    5.0714    1.6262   -6.0930 H      0
    5.9826    3.3432   -4.5839 H      0
    4.2226    4.6259   -1.5533 H      0
    4.0291    5.8752   -3.7545 H      0
    5.7042    5.4819   -4.1025 H      0
    5.3130    6.5223   -2.7361 H      0
    7.0498    4.6430   -2.4827 H      0
    6.5237    3.0632   -1.8970 H      0
    6.4104    4.4768   -0.8483 H      0
    0.7349    1.5934   -2.6649 H      0
   -0.7595    1.3489   -4.7238 H      0
    0.6738    1.5869   -5.7230 H      0
    0.1197    2.8672   -4.6466 H      0
    1.3658   -0.6833   -4.6142 H      0
   -0.0594   -0.5837   -3.5877 H      0
    1.5348   -0.7537   -2.8580 H      0
    2.0768    4.8627   -3.5886 H      0
    0.6647    6.7805   -4.1793 H      0
   -0.8039    7.8234   -2.5388 H      0
   -1.5366    7.9803   -0.0316 H      0
   -1.1797    7.1520    2.2346 H      0
    0.3104    5.3270    2.6967 H      0
    6.8895   -0.6868    0.4361 H      0
    6.0164   -1.7383    1.5435 H      0
    7.3765   -0.7870    2.1268 H      0
    5.8201    2.0048    2.9025 H      0
    7.3334    1.1292    2.6362 H      0
    7.2783    3.0937    1.1608 H      0
    7.1036    1.6383    0.1617 H      0
    5.6617    4.5832    1.2321 H      0
    4.6378    3.5678    2.2575 H      0
    4.0235    4.2215    0.7387 H      0
  1  2  1
  2  3  1
  3  4  1
  4  5  1
  5  6  1
  5  7  1
  2  7  1
  7  8  1
  8  9  4
  9 10  4
  7 11  1
 11 12  1
 12 13  4
 13 14  4
 14 15  4
 15 16  4
 16 17  4
 12 17  4
 17 18  1
 18 19  1
 18 20  1
 13 21  1
 21 22  1
 21 23  1
 11 24  1
 24 25  2
 25 26  1
  7 26  1
 26 27  1
 27 28  4
 28 29  4
 29 30  4
 30 31  4
 31 32  4
 27 32  4
 32 33  1
 33 34  1
 33 35  1
 28 36  1
 36 37  1
 36 38  1
 25 39  1
 39 40  4
 40 41  4
 41 42  4
 42 43  4
 43 44  4
 44 45  4
 45 46  4
 46 47  4
 24 47  1
 47 48  4
 39 48  4
 43 48  4
  7 49  1
 49 50  1
 49 51  1
 51 52  1
 52 53  1
  7 53  1
 53 54  1
  1 55  1
  1 56  1
  1 57  1
  3 58  1
  3 59  1
  4 60  1
  4 61  1
  6 62  1
  6 63  1
  6 64  1
 14 65  1
 15 66  1
 16 67  1
 18 68  1
 19 69  1
 19 70  1
 19 71  1
 20 72  1
 20 73  1
 20 74  1
 21 75  1
 22 76  1
 22 77  1
 22 78  1
 23 79  1
 23 80  1
 23 81  1
 29 82  1
 30 83  1
 31 84  1
 33 85  1
 34 86  1
 34 87  1
 34 88  1
 35 89  1
 35 90  1
 35 91  1
 36 92  1
 37 93  1
 37 94  1
 37 95  1
 38 96  1
 38 97  1
 38 98  1
 40 99  1
 41100  1
 42101  1
 44102  1
 45103  1
 46104  1
 50105  1
 50106  1
 50107  1
 51108  1
 51109  1
 52110  1
 52111  1
 54112  1
 54113  1
 54114  1
M  END
$$$$
