
  --CCDC--092525    3D                              

 57 64  0  0  0  0  0  0  0  0999 V2000
    2.3613   -3.0410    1.4131 C      0
    3.0717   -2.2373    0.4267 C      0
    3.6076   -1.5639   -0.3166 N      0
    4.6955   -0.1982   -1.6532 Fe     1
    6.3421   -1.1755   -0.5717 N      0
    7.1952   -1.6818   -0.0113 C      0
    8.3043   -2.3480    0.6581 C      0
    2.6435    0.1876   -2.3735 C      0
    1.9503   -1.0552   -2.4951 N      0
    2.5767   -2.1991   -3.1394 C      0
    3.5875   -1.7321   -4.0660 N      0
    3.4885   -1.6108   -5.4536 C      0
    4.6192   -1.0215   -5.8523 C      0
    5.4051   -0.7994   -4.7109 N      0
    6.6760   -0.0788   -4.6963 C      0
    7.1846    0.2691   -3.3779 N      0
    8.4729    0.0450   -2.8769 C      0
    8.5361    0.6638   -1.6879 C      0
    7.2864    1.2511   -1.4751 N      0
    6.8352    2.0562   -0.3466 C      0
    5.5088    2.5329   -0.6976 N      0
    5.1596    3.7467   -1.2944 C      0
    3.8281    3.7257   -1.4291 C      0
    3.3830    2.4938   -0.9349 N      0
    2.0121    2.0349   -0.7702 C      0
    1.7272    0.7825   -1.4546 N      0
    0.5557    0.0519   -1.2407 C      0
    0.6968   -1.1022   -1.8928 C      0
    4.4229    1.6489   -0.4736 C      0
    6.3377    1.0008   -2.5080 C      0
    4.8468   -1.3690   -3.5290 C      0
    1.2975   -2.8210    1.4174 H      0
    2.7509   -2.8420    2.4112 H      0
    2.4895   -4.1000    1.2117 H      0
    8.0486   -3.3769    0.9261 H      0
    8.5576   -1.8140    1.5666 H      0
    9.1850   -2.3631    0.0150 H      0
    3.0729   -2.7834   -2.3609 H      0
    1.8284   -2.8404   -3.6308 H      0
    2.6390   -1.8787   -6.0779 H      0
    4.8511   -0.7293   -6.8716 H      0
    7.4372   -0.6481   -5.2472 H      0
    6.5173    0.8652   -5.2325 H      0
    9.2718   -0.4979   -3.3764 H      0
    9.3867    0.7218   -1.0165 H      0
    6.7801    1.4492    0.5671 H      0
    7.5081    2.9057   -0.1730 H      0
    5.8390    4.5450   -1.5787 H      0
    3.2088    4.5207   -1.8259 H      0
    1.8245    1.8733    0.2991 H      0
    1.3162    2.8078   -1.1115 H      0
   -0.2709    0.3578   -0.6063 H      0
    0.0187   -1.9487   -1.8981 H      0
    2.6471    0.7535   -3.3182 H      0
    4.2892    1.4362    0.6015 H      0
    5.9715    1.9252   -2.9809 H      0
    5.3942   -2.2931   -3.3117 H      0
  1  2  1
  2  3  3
  3  4  1
  4  5  1
  5  6  3
  6  7  1
  4  8  1
  8  9  1
  9 10  1
 10 11  1
 11 12  1
 12 13  2
 13 14  1
 14 15  1
 15 16  1
 16 17  1
 17 18  2
 18 19  1
 19 20  1
 20 21  1
 21 22  1
 22 23  2
 23 24  1
 24 25  1
 25 26  1
  8 26  1
 26 27  1
 27 28  2
  9 28  1
 24 29  1
  4 29  1
 21 29  1
 19 30  1
  4 30  1
 16 30  1
 14 31  1
  4 31  1
 11 31  1
  1 32  1
  1 33  1
  1 34  1
  7 35  1
  7 36  1
  7 37  1
 10 38  1
 10 39  1
 12 40  1
 13 41  1
 15 42  1
 15 43  1
 17 44  1
 18 45  1
 20 46  1
 20 47  1
 22 48  1
 23 49  1
 25 50  1
 25 51  1
 27 52  1
 28 53  1
  8 54  1
 29 55  1
 30 56  1
 31 57  1
M  CHG  1   4   3
M  END
$$$$
