
     RDKit          3D

 57 60  0  0  0  0  0  0  0  0999 V2000
    4.7923    1.6756    1.0868 C   0  0  0  0  0  0  0  0  0  0  0  0
    3.4547    1.3335    1.4282 O   0  0  0  0  0  0  0  0  0  0  0  0
    2.7334    2.2608    2.1390 C   0  0  0  0  0  0  0  0  0  0  0  0
    3.2892    3.3772    2.7747 C   0  0  0  0  0  0  0  0  0  0  0  0
    2.4763    4.2673    3.4849 C   0  0  0  0  0  0  0  0  0  0  0  0
    1.1034    4.0496    3.5713 C   0  0  0  0  0  0  0  0  0  0  0  0
    0.5393    2.9380    2.9480 C   0  0  0  0  0  0  0  0  0  0  0  0
    1.3477    2.0425    2.2360 C   0  0  0  0  0  0  0  0  0  0  0  0
    0.7232    0.9204    1.5993 C   0  0  0  0  0  0  0  0  0  0  0  0
    0.1903   -0.0046    1.0465 C   0  0  0  0  0  0  0  0  0  0  0  0
   -0.4536   -1.0942    0.3654 C   0  0  0  0  0  0  0  0  0  0  0  0
   -1.4435   -0.8781   -0.5339 C   0  0  0  0  0  0  0  0  0  0  0  0
   -1.8397    0.5289   -0.6899 N   0  0  0  0  0  0  0  0  0  0  0  0
   -0.9842    1.3148   -1.5623 C   0  0  0  0  0  0  0  0  0  0  0  0
   -0.7517    2.6444   -1.1939 C   0  0  0  0  0  0  0  0  0  0  0  0
    0.0204    3.4783   -2.0033 C   0  0  0  0  0  0  0  0  0  0  0  0
    0.5415    2.9953   -3.2021 C   0  0  0  0  0  0  0  0  0  0  0  0
    0.2854    1.6826   -3.5950 C   0  0  0  0  0  0  0  0  0  0  0  0
   -0.4845    0.8454   -2.7835 C   0  0  0  0  0  0  0  0  0  0  0  0
   -3.5053    0.5198   -1.1653 S   0  0  0  0  0  0  0  0  0  0  0  0
   -4.3440    0.5338    0.0140 O   0  0  0  0  0  0  0  0  0  0  0  0
   -3.7500    1.3722   -2.3085 O   0  0  0  0  0  0  0  0  0  0  0  0
   -3.4792   -1.1324   -1.7319 C   0  0  0  0  0  0  0  0  0  0  0  0
   -4.4491   -1.6948   -2.5505 C   0  0  0  0  0  0  0  0  0  0  0  0
   -4.2407   -2.9979   -2.9874 C   0  0  0  0  0  0  0  0  0  0  0  0
   -3.0741   -3.6796   -2.6173 C   0  0  0  0  0  0  0  0  0  0  0  0
   -2.1063   -3.0675   -1.8038 C   0  0  0  0  0  0  0  0  0  0  0  0
   -2.3130   -1.7795   -1.3251 C   0  0  0  0  0  0  0  0  0  0  0  0
    0.2560   -2.7287    0.9890 Si  0  0  0  0  0  4  0  0  0  0  0  0
    1.3125   -2.4694    2.5520 C   0  0  0  0  0  0  0  0  0  0  0  0
   -1.0968   -3.9304    1.4903 C   0  0  0  0  0  0  0  0  0  0  0  0
    1.4055   -3.4699   -0.3010 C   0  0  0  0  0  0  0  0  0  0  0  0
    5.1722    0.8991    0.4156 H   0  0  0  0  0  0  0  0  0  0  0  0
    4.8372    2.6304    0.5498 H   0  0  0  0  0  0  0  0  0  0  0  0
    5.4329    1.6907    1.9757 H   0  0  0  0  0  0  0  0  0  0  0  0
    4.3548    3.5793    2.7432 H   0  0  0  0  0  0  0  0  0  0  0  0
    2.9194    5.1307    3.9748 H   0  0  0  0  0  0  0  0  0  0  0  0
    0.4726    4.7415    4.1239 H   0  0  0  0  0  0  0  0  0  0  0  0
   -0.5335    2.7704    3.0164 H   0  0  0  0  0  0  0  0  0  0  0  0
   -1.1595    3.0281   -0.2623 H   0  0  0  0  0  0  0  0  0  0  0  0
    0.2127    4.5034   -1.6994 H   0  0  0  0  0  0  0  0  0  0  0  0
    1.1409    3.6467   -3.8334 H   0  0  0  0  0  0  0  0  0  0  0  0
    0.6816    1.3131   -4.5379 H   0  0  0  0  0  0  0  0  0  0  0  0
   -0.6820   -0.1654   -3.1232 H   0  0  0  0  0  0  0  0  0  0  0  0
   -5.3291   -1.1317   -2.8478 H   0  0  0  0  0  0  0  0  0  0  0  0
   -4.9732   -3.4822   -3.6288 H   0  0  0  0  0  0  0  0  0  0  0  0
   -2.9085   -4.6931   -2.9786 H   0  0  0  0  0  0  0  0  0  0  0  0
   -1.2047   -3.6246   -1.5868 H   0  0  0  0  0  0  0  0  0  0  0  0
    2.1822   -1.8451    2.3298 H   0  0  0  0  0  0  0  0  0  0  0  0
    0.7232   -1.9926    3.3406 H   0  0  0  0  0  0  0  0  0  0  0  0
    1.6686   -3.4359    2.9220 H   0  0  0  0  0  0  0  0  0  0  0  0
   -0.6551   -4.8545    1.8769 H   0  0  0  0  0  0  0  0  0  0  0  0
   -1.7134   -3.4949    2.2842 H   0  0  0  0  0  0  0  0  0  0  0  0
   -1.7546   -4.2008    0.6626 H   0  0  0  0  0  0  0  0  0  0  0  0
    0.9438   -3.5237   -1.2889 H   0  0  0  0  0  0  0  0  0  0  0  0
    1.7050   -4.4807   -0.0082 H   0  0  0  0  0  0  0  0  0  0  0  0
    2.3113   -2.8613   -0.3902 H   0  0  0  0  0  0  0  0  0  0  0  0
  1  2  1  0
  2  3  1  0
  3  4  2  0
  4  5  1  0
  5  6  2  0
  6  7  1  0
  7  8  2  0
  8  9  1  0
  9 10  3  0
 10 11  1  0
 11 12  2  3
 12 13  1  0
 13 14  1  0
 14 15  2  0
 15 16  1  0
 16 17  2  0
 17 18  1  0
 18 19  2  0
 13 20  1  0
 20 21  2  0
 20 22  2  0
 20 23  1  0
 23 24  2  0
 24 25  1  0
 25 26  2  0
 26 27  1  0
 27 28  2  0
 11 29  1  0
 29 30  1  0
 29 31  1  0
 29 32  1  0
  8  3  1  0
 28 12  1  0
 19 14  1  0
 28 23  1  0
  1 33  1  0
  1 34  1  0
  1 35  1  0
  4 36  1  0
  5 37  1  0
  6 38  1  0
  7 39  1  0
 15 40  1  0
 16 41  1  0
 17 42  1  0
 18 43  1  0
 19 44  1  0
 24 45  1  0
 25 46  1  0
 26 47  1  0
 27 48  1  0
 30 49  1  0
 30 50  1  0
 30 51  1  0
 31 52  1  0
 31 53  1  0
 31 54  1  0
 32 55  1  0
 32 56  1  0
 32 57  1  0
M  END
