
  --CCDC--092525    3D                              

111119  0  0  0  0  0  0  0  0999 V2000
    2.2899    1.9152   -0.2876 H      0
    2.6160    0.8824   -0.3456 C      0
    1.8602   -0.1385   -0.0125 N      0
    0.4539   -0.2628    0.1997 C      0
   -0.1049    0.6296   -0.1375 H      0
    0.1958   -0.3138    1.6894 C      0
   -0.7446   -1.1594    2.2634 C      0
   -1.3106   -1.8475    1.6454 H      0
   -0.9766   -1.1277    3.6294 C      0
   -1.7210   -1.7841    4.0688 H      0
   -0.2670   -0.2629    4.4345 C      0
   -0.4486   -0.2405    5.5037 H      0
    0.6741    0.5737    3.8783 C      0
    1.2336    1.2577    4.5072 H      0
    0.9060    0.5450    2.5155 C      0
    1.6510    1.2072    2.0872 H      0
   -0.0615   -1.4168   -0.6950 C      0
   -1.0667   -1.6491   -0.2793 H      0
   -0.3849   -0.9140   -2.0869 C      0
   -1.6558   -1.1499   -2.5937 C      0
   -2.3718   -1.6998   -1.9917 H      0
   -2.0371   -0.6732   -3.8372 C      0
   -3.0499   -0.8346   -4.1922 H      0
   -1.1377    0.0153   -4.6203 C      0
   -1.4329    0.3822   -5.5983 H      0
    0.1358    0.2409   -4.1457 C      0
    0.8581    0.7658   -4.7636 H      0
    0.4951   -0.1939   -2.8794 C      0
    1.4778    0.0395   -2.5023 H      0
    0.9182   -2.4896   -0.7098 N      0
    0.9496   -3.6659   -1.2895 C      0
    0.0659   -4.2203   -1.5869 H      0
    2.3548   -4.1741   -1.4473 C      0
    2.6908   -4.4848   -0.4605 H      0
    2.3770   -5.1133   -2.0126 H      0
    3.4691   -2.9154   -2.1815 P      0
    3.0596   -3.9886   -3.6129 C      0
    1.7787   -4.2551   -4.1430 C      0
    0.8977   -3.7515   -3.7673 H      0
    1.5960   -5.2095   -5.1302 C      0
    0.5892   -5.4435   -5.4604 H      0
    2.6603   -5.8829   -5.7037 C      0
    2.4664   -7.0101   -6.6852 C      0
    1.7383   -7.7234   -6.3063 H      0
    3.4037   -7.5386   -6.8471 H      0
    2.1166   -6.6373   -7.6448 H      0
    3.9283   -5.4850   -5.3368 C      0
    4.7911   -5.9201   -5.8333 H      0
    4.1251   -4.5446   -4.3477 C      0
    5.1522   -4.2528   -4.1724 H      0
    5.2723   -3.0431   -2.1548 C      0
    5.9241   -4.1974   -1.7259 C      0
    5.3518   -5.0164   -1.3039 H      0
    7.2949   -4.3164   -1.8770 C      0
    7.7831   -5.2333   -1.5646 H      0
    8.0533   -3.2985   -2.4344 C      0
    9.5454   -3.4415   -2.6124 C      0
    9.9910   -3.9335   -1.7511 H      0
   10.0175   -2.4683   -2.7288 H      0
    9.7719   -4.0334   -3.4962 H      0
    7.4030   -2.1380   -2.8202 C      0
    7.9794   -1.3274   -3.2539 H      0
    6.0337   -1.9983   -2.6790 C      0
    5.5471   -1.0830   -3.0032 H      0
    2.8644   -2.0641    0.1822 Fe     0
    4.1780   -3.7001    0.8651 N      0
    4.8027   -4.5955    1.1960 C      0
    5.5754   -5.7477    1.6394 C      0
    5.7982   -6.3979    0.7960 H      0
    5.0218   -6.3263    2.3746 H      0
    6.5187   -5.4395    2.0875 H      0
    2.1899   -2.5400    2.2221 N      0
    1.8400   -2.7869    3.2805 C      0
    1.4252   -3.0754    4.6464 C      0
    0.3518   -3.2455    4.7064 H      0
    1.9311   -3.9626    5.0180 H      0
    1.6819   -2.2484    5.3070 H      0
    4.7621   -0.3737    0.5856 P      0
    4.5180   -0.4150    2.3831 C      0
    3.9948    0.6941    3.0532 C      0
    3.6531    1.5596    2.4943 H      0
    3.9237    0.7085    4.4348 C      0
    3.5250    1.5834    4.9368 H      0
    4.3591   -0.3648    5.1929 C      0
    4.3371   -0.3111    6.7002 C      0
    4.1598   -1.2991    7.1195 H      0
    3.5499    0.3536    7.0487 H      0
    5.2858    0.0559    7.0873 H      0
    4.8008   -1.4938    4.5253 C      0
    5.1047   -2.3643    5.0973 H      0
    4.8693   -1.5332    3.1446 C      0
    5.2094   -2.4403    2.6609 H      0
    6.4819   -0.8298    0.2466 C      0
    7.2887    0.0894   -0.4193 C      0
    6.8475    0.9947   -0.8232 H      0
    8.6500   -0.1231   -0.5403 C      0
    9.2604    0.6291   -1.0296 H      0
    9.2517   -1.2631   -0.0346 C      0
   10.7466   -1.4555   -0.1221 C      0
   11.0293   -1.8946   -1.0768 H      0
   11.2612   -0.5017   -0.0232 H      0
   11.1000   -2.1114    0.6712 H      0
    8.4401   -2.2024    0.5802 C      0
    8.8851   -3.1093    0.9777 H      0
    7.0766   -2.0007    0.7170 C      0
    6.4811   -2.7498    1.2181 H      0
    3.9692    0.4634   -0.8107 C      0
    3.9089   -0.1979   -1.6838 H      0
    4.5514    1.3428   -1.1085 H      0
    3.0320   -1.7468   -2.8126 H      0
    4.6878    0.9795    0.9297 H      0
  1  2  1
  2  3  2
  3  4  1
  4  5  1
  4  6  1
  6  7  4
  7  8  1
  7  9  4
  9 10  1
  9 11  4
 11 12  1
 11 13  4
 13 14  1
 13 15  4
  6 15  4
 15 16  1
  4 17  1
 17 18  1
 17 19  1
 19 20  4
 20 21  1
 20 22  4
 22 23  1
 22 24  4
 24 25  1
 24 26  4
 26 27  1
 26 28  4
 19 28  4
 28 29  1
 17 30  1
 30 31  2
 31 32  1
 31 33  1
 33 34  1
 33 35  1
 33 36  1
 36 37  1
 37 38  4
 38 39  1
 38 40  4
 40 41  1
 40 42  4
 42 43  1
 43 44  1
 43 45  1
 43 46  1
 42 47  4
 47 48  1
 47 49  4
 37 49  4
 49 50  1
 36 51  1
 51 52  4
 52 53  1
 52 54  4
 54 55  1
 54 56  4
 56 57  1
 57 58  1
 57 59  1
 57 60  1
 56 61  4
 61 62  1
 61 63  4
 51 63  4
 63 64  1
 36 65  1
  3 65  1
 30 65  1
 65 66  1
 66 67  3
 67 68  1
 68 69  1
 68 70  1
 68 71  1
 65 72  1
 72 73  3
 73 74  1
 74 75  1
 74 76  1
 74 77  1
 65 78  1
 78 79  1
 79 80  4
 80 81  1
 80 82  4
 82 83  1
 82 84  4
 84 85  1
 85 86  1
 85 87  1
 85 88  1
 84 89  4
 89 90  1
 89 91  4
 79 91  4
 91 92  1
 78 93  1
 93 94  4
 94 95  1
 94 96  4
 96 97  1
 96 98  4
 98 99  1
 99100  1
 99101  1
 99102  1
 98103  4
103104  1
103105  4
 93105  4
105106  1
 78107  1
  2107  1
107108  1
107109  1
 36110  1
 78111  1
M  END
$$$$
