
 OpenBabel09252514253D

 29 30  0  0  0  0  0  0  0  0999 V2000
    0.9897    0.0800    0.0591 Cl  0  0  0  0  0  0  0  0  0  0  0  0
    3.3697    0.0800    0.0591 Au  0  0  0  0  0  0  0  0  0  0  0  0
    5.2671    0.0800    0.0591 C   0  0  0  0  0  0  0  0  0  0  0  0
    6.0021   -0.1907    1.3031 N   0  0  0  0  0  0  0  0  0  0  0  0
    5.7103   -1.2622    2.2732 C   0  0  0  0  0  0  0  0  0  0  0  0
    5.9713   -0.5740    3.5844 C   0  0  0  0  0  0  0  0  0  0  0  0
    7.2927    0.2065    3.3132 C   0  0  0  0  0  0  0  0  0  0  0  0
    7.1710    0.6040    1.8397 C   0  0  0  0  0  0  0  0  0  0  0  0
    6.0021    0.3507   -1.1848 N   0  0  0  0  0  0  0  0  0  0  0  0
    5.7141    1.4207   -2.1577 C   0  0  0  0  0  0  0  0  0  0  0  0
    6.0530    0.7542   -3.4623 C   0  0  0  0  0  0  0  0  0  0  0  0
    7.3882    0.0168   -3.1422 C   0  0  0  0  0  0  0  0  0  0  0  0
    7.2191   -0.3985   -1.6784 C   0  0  0  0  0  0  0  0  0  0  0  0
    6.2925   -2.1479    2.1268 H   0  0  0  0  0  0  0  0  0  0  0  0
    4.6935   -1.5870    2.1999 H   0  0  0  0  0  0  0  0  0  0  0  0
    5.1655    0.0566    3.8975 H   0  0  0  0  0  0  0  0  0  0  0  0
    6.0997   -1.2853    4.3733 H   0  0  0  0  0  0  0  0  0  0  0  0
    7.4243    1.0458    3.9637 H   0  0  0  0  0  0  0  0  0  0  0  0
    8.1465   -0.4184    3.4723 H   0  0  0  0  0  0  0  0  0  0  0  0
    7.0221    1.6572    1.7234 H   0  0  0  0  0  0  0  0  0  0  0  0
    8.0669    0.3558    1.3101 H   0  0  0  0  0  0  0  0  0  0  0  0
    6.2587    2.3244   -1.9800 H   0  0  0  0  0  0  0  0  0  0  0  0
    4.6844    1.7098   -2.1245 H   0  0  0  0  0  0  0  0  0  0  0  0
    5.2833    0.0994   -3.8140 H   0  0  0  0  0  0  0  0  0  0  0  0
    6.1894    1.4770   -4.2394 H   0  0  0  0  0  0  0  0  0  0  0  0
    7.5757   -0.8112   -3.7934 H   0  0  0  0  0  0  0  0  0  0  0  0
    8.2258    0.6721   -3.2604 H   0  0  0  0  0  0  0  0  0  0  0  0
    7.1020   -1.4572   -1.5768 H   0  0  0  0  0  0  0  0  0  0  0  0
    8.0830   -0.1247   -1.1097 H   0  0  0  0  0  0  0  0  0  0  0  0
  1  2  1  0  0  0  0
  2  3  2  0  0  0  0
  3  4  1  0  0  0  0
  3  9  1  0  0  0  0
  4  5  1  0  0  0  0
  4  8  1  0  0  0  0
  5  6  1  0  0  0  0
  5 14  1  0  0  0  0
  5 15  1  0  0  0  0
  6  7  1  0  0  0  0
  6 16  1  0  0  0  0
  6 17  1  0  0  0  0
  7  8  1  0  0  0  0
  7 18  1  0  0  0  0
  7 19  1  0  0  0  0
  8 20  1  0  0  0  0
  8 21  1  0  0  0  0
  9 10  1  0  0  0  0
  9 13  1  0  0  0  0
 10 11  1  0  0  0  0
 10 22  1  0  0  0  0
 10 23  1  0  0  0  0
 11 12  1  0  0  0  0
 11 24  1  0  0  0  0
 11 25  1  0  0  0  0
 12 13  1  0  0  0  0
 12 26  1  0  0  0  0
 12 27  1  0  0  0  0
 13 28  1  0  0  0  0
 13 29  1  0  0  0  0
M  END
$$$$
