
  --CCDC--092525    3D                              

109117  0  0  0  0  0  0  0  0999 V2000
    0.7909    0.5600    1.4605 C      0
    1.8038    0.2399    0.4635 C      0
    2.6226    0.0301   -0.3035 N      0
    4.2028   -0.3747   -1.7841 Fe     2
    6.2200    0.4567   -2.0766 N      0
    7.2609    0.9042   -2.2183 C      0
    8.5615    1.5221   -2.4274 C      0
    4.4438   -2.5271   -2.1712 N      0
    5.4742   -3.0697   -1.5559 C      0
    5.2158   -3.1153   -0.0913 C      0
    5.2433   -1.3576    0.3477 P      0
    4.3004   -1.1562    1.8811 C      0
    3.4179   -2.1516    2.2897 C      0
    2.7162   -2.0312    3.4732 C      0
    2.8425   -0.9090    4.2723 C      0
    2.0862   -0.8121    5.5747 C      0
    3.6679    0.1131    3.8270 C      0
    4.3825    0.0031    2.6450 C      0
    6.9645   -0.8643    0.6197 C      0
    7.9859   -1.7938    0.4572 C      0
    9.2947   -1.4585    0.7488 C      0
    9.6318   -0.1927    1.1964 C      0
   11.0550    0.1423    1.5719 C      0
    8.6173    0.7454    1.3026 C      0
    7.3020    0.4271    1.0097 C      0
    3.4862   -3.0747   -3.0660 C      0
    3.4951   -2.1076   -4.2687 C      0
    3.2370   -0.8242   -3.7129 N      0
    2.5568    0.1609   -4.2293 C      0
    2.1519    1.0849   -3.1559 C      0
    3.6457    2.0022   -2.6341 P      0
    2.4793    3.2220   -3.3128 C      0
    2.4800    3.4053   -4.7000 C      0
    1.6897    4.3620   -5.2972 C      0
    0.8321    5.1465   -4.5539 C      0
    0.0155    6.2164   -5.2359 C      0
    0.7623    4.9078   -3.1878 C      0
    1.5706    3.9675   -2.5631 C      0
    4.9863    2.3449   -3.8060 C      0
    5.3778    1.4544   -4.7994 C      0
    6.3963    1.7745   -5.6747 C      0
    7.0595    2.9859   -5.6019 C      0
    8.1472    3.3177   -6.5938 C      0
    6.6814    3.8662   -4.6009 C      0
    5.6637    3.5565   -3.7153 C      0
    4.7490   -2.0913   -5.1272 C      0
    4.6330   -2.3149   -6.4919 C      0
    5.7327   -2.2245   -7.3275 C      0
    6.9697   -1.9139   -6.8091 C      0
    7.1109   -1.7181   -5.4536 C      0
    6.0114   -1.8103   -4.6174 C      0
    2.1059   -3.1839   -2.4406 C      0
    1.5238   -4.4286   -2.2415 C      0
    0.2639   -4.5430   -1.6788 C      0
   -0.4368   -3.4160   -1.3147 C      0
    0.1245   -2.1739   -1.5066 C      0
    1.3890   -2.0585   -2.0560 C      0
    0.1423    1.3616    1.1080 H      0
    1.2578    0.8919    2.3865 H      0
    0.1749   -0.3099    1.6827 H      0
    9.3415    0.7667   -2.5025 H      0
    8.8071    2.1866   -1.6033 H      0
    8.5617    2.1082   -3.3436 H      0
    6.3876   -3.3997   -2.0400 H      0
    4.2346   -3.5710    0.0838 H      0
    5.9559   -3.7037    0.4645 H      0
    3.2861   -3.0441    1.6902 H      0
    2.0546   -2.8338    3.7820 H      0
    2.5241   -1.4699    6.3226 H      0
    1.0466   -1.1030    5.4382 H      0
    2.1062    0.2037    5.9626 H      0
    3.7595    1.0160    4.4217 H      0
    5.0182    0.8207    2.3218 H      0
    7.7571   -2.7969    0.1146 H      0
   10.0718   -2.2063    0.6345 H      0
   11.4832   -0.6446    2.1894 H      0
   11.0963    1.0729    2.1336 H      0
   11.6762    0.2520    0.6854 H      0
    8.8603    1.7491    1.6328 H      0
    6.5309    1.1844    1.1049 H      0
    3.8119   -4.0719   -3.3991 H      0
    2.6527   -2.3766   -4.9250 H      0
    2.3621    0.3053   -5.2859 H      0
    1.3237    1.7069   -3.5074 H      0
    1.7129    0.5191   -2.3306 H      0
    3.0987    2.7822   -5.3365 H      0
    1.7445    4.4975   -6.3703 H      0
   -0.5275    5.8051   -6.0840 H      0
    0.6647    7.0090   -5.6036 H      0
   -0.7075    6.6517   -4.5508 H      0
    0.0665    5.4888   -2.5921 H      0
    1.5003    3.8232   -1.4920 H      0
    4.8959    0.4937   -4.8984 H      0
    6.6807    1.0589   -6.4387 H      0
    8.2243    2.5375   -7.3483 H      0
    9.1112    3.4050   -6.0984 H      0
    7.9368    4.2573   -7.0992 H      0
    7.1913    4.8188   -4.5118 H      0
    5.3876    4.2699   -2.9453 H      0
    3.6615   -2.5478   -6.9136 H      0
    5.6191   -2.3915   -8.3933 H      0
    7.8291   -1.8243   -7.4652 H      0
    8.0856   -1.4824   -5.0403 H      0
    6.1432   -1.6341   -3.5568 H      0
    2.0632   -5.3242   -2.5320 H      0
   -0.1730   -5.5224   -1.5262 H      0
   -1.4260   -3.5047   -0.8788 H      0
   -0.4266   -1.2819   -1.2277 H      0
    1.8162   -1.0718   -2.1870 H      0
  1  2  1
  2  3  3
  3  4  1
  4  5  1
  5  6  3
  6  7  1
  4  8  1
  8  9  2
  9 10  1
 10 11  1
  4 11  1
 11 12  1
 12 13  4
 13 14  4
 14 15  4
 15 16  1
 15 17  4
 17 18  4
 12 18  4
 11 19  1
 19 20  4
 20 21  4
 21 22  4
 22 23  1
 22 24  4
 24 25  4
 19 25  4
  8 26  1
 26 27  1
 27 28  1
  4 28  1
 28 29  2
 29 30  1
 30 31  1
  4 31  1
 31 32  1
 32 33  4
 33 34  4
 34 35  4
 35 36  1
 35 37  4
 37 38  4
 32 38  4
 31 39  1
 39 40  4
 40 41  4
 41 42  4
 42 43  1
 42 44  4
 44 45  4
 39 45  4
 27 46  1
 46 47  4
 47 48  4
 48 49  4
 49 50  4
 50 51  4
 46 51  4
 26 52  1
 52 53  4
 53 54  4
 54 55  4
 55 56  4
 56 57  4
 52 57  4
  1 58  1
  1 59  1
  1 60  1
  7 61  1
  7 62  1
  7 63  1
  9 64  1
 10 65  1
 10 66  1
 13 67  1
 14 68  1
 16 69  1
 16 70  1
 16 71  1
 17 72  1
 18 73  1
 20 74  1
 21 75  1
 23 76  1
 23 77  1
 23 78  1
 24 79  1
 25 80  1
 26 81  1
 27 82  1
 29 83  1
 30 84  1
 30 85  1
 33 86  1
 34 87  1
 36 88  1
 36 89  1
 36 90  1
 37 91  1
 38 92  1
 40 93  1
 41 94  1
 43 95  1
 43 96  1
 43 97  1
 44 98  1
 45 99  1
 47100  1
 48101  1
 49102  1
 50103  1
 51104  1
 53105  1
 54106  1
 55107  1
 56108  1
 57109  1
M  CHG  1   4   2
M  END
$$$$
