
  --CCDC--092525    3D                              

 39 44  0  0  0  0  0  0  0  0999 V2000
   -0.0592    0.3477   -0.8464 C      0
    1.7622   -0.0046   -0.6206 Si     0
    1.8669   -1.4329    0.5790 C      0
    2.3458   -0.6798   -2.2615 C      0
    2.6981    1.4439   -0.0739 C      0
    3.7438    1.9443   -0.8542 C      0
    5.2957    2.6869   -2.0120 Cr     0
    3.5245    2.4857   -3.0581 C      0
    2.5629    2.3960   -3.6601 O      0
    3.8111    4.0514   -1.5504 C      0
    2.9993    4.8167   -1.3184 O      0
    6.1585    2.8357   -3.6684 C      0
    6.3751    4.0461   -2.7141 C      0
    6.5458    3.8100   -1.1850 C      0
    6.4998    2.3647   -0.6119 C      0
    6.2802    1.1534   -1.5668 C      0
    6.1074    1.3885   -3.0940 C      0
    2.3128    2.2081    1.5222 Si     0
    0.8815    1.3905    2.4076 C      0
    1.8383    4.0097    1.3647 C      0
    3.7530    2.1639    2.7147 C      0
   -0.2119    1.3459   -1.2540 H      0
   -0.5804    0.2815    0.1055 H      0
   -0.5124   -0.3711   -1.5255 H      0
    2.8736   -1.5247    0.9813 H      0
    1.6120   -2.3678    0.0842 H      0
    1.1792   -1.2885    1.4094 H      0
    1.7706   -1.5518   -2.5602 H      0
    3.3978   -0.9591   -2.2115 H      0
    2.2206    0.0697   -3.0380 H      0
   -0.0263    1.4542    1.8112 H      0
    0.6971    1.8697    3.3655 H      0
    1.0867    0.3391    2.5974 H      0
    1.4006    4.2108    0.3905 H      0
    1.1064    4.2825    2.1222 H      0
    2.7081    4.6517    1.4862 H      0
    4.0536    1.1383    2.9179 H      0
    3.4856    2.6320    3.6595 H      0
    4.6103    2.6933    2.3049 H      0
  1  2  1
  2  3  1
  2  4  1
  2  5  1
  5  6  4
  6  7  4
  7  8  1
  8  9  3
  7 10  1
 10 11  3
  7 12  1
 12 13  4
  7 13  1
 13 14  4
  7 14  1
 14 15  4
  7 15  1
 15 16  4
  7 16  1
 16 17  4
  7 17  1
 12 17  4
  5 18  1
 18 19  1
 18 20  1
 18 21  1
  1 22  1
  1 23  1
  1 24  1
  3 25  1
  3 26  1
  3 27  1
  4 28  1
  4 29  1
  4 30  1
 19 31  1
 19 32  1
 19 33  1
 20 34  1
 20 35  1
 20 36  1
 21 37  1
 21 38  1
 21 39  1
M  END
$$$$
