
 OpenBabel09252517163D

 23 24  0  0  1  0  0  0  0  0999 V2000
    9.9936   -1.1542   -7.7186 H   0  0  0  0  0  0  0  0  0  0  0  0
    9.3923   -0.5611   -7.0391 C   0  0  0  0  0  3  0  0  0  0  0  0
    9.9094   -0.2332   -5.7202 C   0  0  0  0  0  3  0  0  0  0  0  0
   10.9009   -0.5764   -5.4453 H   0  0  0  0  0  0  0  0  0  0  0  0
    8.9984    0.2085   -4.6692 C   0  0  0  0  0  3  0  0  0  0  0  0
    9.3647    0.2128   -3.6467 H   0  0  0  0  0  0  0  0  0  0  0  0
    7.5398    0.2327   -4.9095 C   0  0  0  0  0  3  0  0  0  0  0  0
    6.5176   -0.3765   -3.5962 S   0  0  0  0  0  0  0  0  0  0  0  0
    6.3324   -1.8042   -3.8098 O   0  0  0  0  0  0  0  0  0  0  0  0
    7.1124    0.0661   -2.3422 O   0  0  0  0  0  0  0  0  0  0  0  0
    4.9028    0.4016   -3.6849 C   0  0  2  0  0  0  0  0  0  0  0  0
    4.2092   -0.0459   -2.9634 H   0  0  0  0  0  0  0  0  0  0  0  0
    4.3687    0.3313   -5.0563 N   0  0  0  0  0  0  0  0  0  0  0  0
    3.7628   -0.3701   -5.4636 H   0  0  0  0  0  0  0  0  0  0  0  0
    3.9601    1.6292   -5.0388 C   0  0  0  0  0  0  0  0  0  0  0  0
    3.1679    2.2045   -5.7411 O   0  0  0  0  0  0  0  0  0  0  0  0
    4.8239    1.9267   -3.7964 C   0  0  0  0  0  0  0  0  0  0  0  0
    4.2831    2.4158   -2.9823 H   0  0  0  0  0  0  0  0  0  0  0  0
    5.7478    2.4652   -4.0167 H   0  0  0  0  0  0  0  0  0  0  0  0
    7.0956    0.1658   -6.3090 C   0  0  0  0  0  3  0  0  0  0  0  0
    6.2377    0.7373   -6.6387 H   0  0  0  0  0  0  0  0  0  0  0  0
    7.9917   -0.3322   -7.3420 C   0  0  0  0  0  3  0  0  0  0  0  0
    7.6038   -0.5629   -8.3270 H   0  0  0  0  0  0  0  0  0  0  0  0
  1  2  1  0  0  0  0
  2  3  1  0  0  0  0
  2 22  1  0  0  0  0
  3  4  1  0  0  0  0
  3  5  1  0  0  0  0
  5  6  1  0  0  0  0
  5  7  1  0  0  0  0
  7  8  1  0  0  0  0
  7 20  1  0  0  0  0
  8  9  2  0  0  0  0
  8 10  2  0  0  0  0
 11 13  1  0  0  0  0
 11 17  1  0  0  0  0
 11 12  1  1  0  0  0
 11  8  1  0  0  0  0
 13 14  1  0  0  0  0
 13 15  1  0  0  0  0
 15 16  2  0  0  0  0
 15 17  1  0  0  0  0
 17 18  1  0  0  0  0
 17 19  1  0  0  0  0
 20 21  1  0  0  0  0
 20 22  1  0  0  0  0
 22 23  1  0  0  0  0
M  END
$$$$
