
 OpenBabel09252513163D

 29 30  0  0  0  0  0  0  0  0999 V2000
    0.9200   -0.0269   -0.0536 H   0  0  0  0  0  0  0  0  0  0  0  0
    1.9900   -0.0269   -0.0536 C   0  0  0  0  0  0  0  0  0  0  0  0
    2.2643   -0.0772   -1.0866 H   0  0  0  0  0  0  0  0  0  0  0  0
    2.5261    1.1541    0.6480 N   0  0  0  0  0  0  0  0  0  0  0  0
    1.8359    2.4375    0.8410 C   0  0  0  0  0  0  0  0  0  0  0  0
    2.6964    3.8462    1.7767 Au  0  0  0  0  0  0  0  0  0  0  0  0
    3.7757    5.6131    2.9504 Cl  0  0  0  0  0  0  0  0  0  0  0  0
    0.4790    2.6297    0.3091 N   0  0  0  0  0  0  0  0  0  0  0  0
   -0.7158    1.8424    0.6652 C   0  0  0  0  0  0  0  0  0  0  0  0
   -1.2973    2.2724    1.4538 H   0  0  0  0  0  0  0  0  0  0  0  0
   -0.4487    0.8692    1.0208 H   0  0  0  0  0  0  0  0  0  0  0  0
   -1.4401    1.7641   -0.6501 C   0  0  0  0  0  0  0  0  0  0  0  0
   -1.0361    1.0258   -1.3109 H   0  0  0  0  0  0  0  0  0  0  0  0
   -2.4649    1.4905   -0.5093 H   0  0  0  0  0  0  0  0  0  0  0  0
   -1.3189    3.2161   -1.2034 C   0  0  0  0  0  0  0  0  0  0  0  0
   -1.4138    3.2678   -2.2679 H   0  0  0  0  0  0  0  0  0  0  0  0
   -2.0954    3.8407   -0.8139 H   0  0  0  0  0  0  0  0  0  0  0  0
    0.0542    3.6708   -0.7015 C   0  0  0  0  0  0  0  0  0  0  0  0
    0.7598    3.7597   -1.5009 H   0  0  0  0  0  0  0  0  0  0  0  0
   -0.0163    4.6335   -0.2398 H   0  0  0  0  0  0  0  0  0  0  0  0
    3.9149    0.8046    1.1327 C   0  0  0  0  0  0  0  0  0  0  0  0
    4.0852    1.1482    2.1316 H   0  0  0  0  0  0  0  0  0  0  0  0
    4.6547    1.2678    0.5137 H   0  0  0  0  0  0  0  0  0  0  0  0
    4.0108   -0.7199    1.0319 C   0  0  0  0  0  0  0  0  0  0  0  0
    4.4353   -1.1714    1.9042 H   0  0  0  0  0  0  0  0  0  0  0  0
    4.6435   -1.0113    0.2196 H   0  0  0  0  0  0  0  0  0  0  0  0
    2.5367   -1.1559    0.7755 C   0  0  0  0  0  0  0  0  0  0  0  0
    1.9838   -1.3241    1.6761 H   0  0  0  0  0  0  0  0  0  0  0  0
    2.4968   -2.0811    0.2395 H   0  0  0  0  0  0  0  0  0  0  0  0
  1  2  1  0  0  0  0
  2  3  1  0  0  0  0
  2  4  1  0  0  0  0
  2 27  1  0  0  0  0
  4  5  1  0  0  0  0
  4 21  1  0  0  0  0
  5  6  2  0  0  0  0
  5  8  1  0  0  0  0
  6  7  1  0  0  0  0
  8  9  1  0  0  0  0
  8 18  1  0  0  0  0
  9 10  1  0  0  0  0
  9 11  1  0  0  0  0
  9 12  1  0  0  0  0
 12 13  1  0  0  0  0
 12 14  1  0  0  0  0
 12 15  1  0  0  0  0
 15 16  1  0  0  0  0
 15 17  1  0  0  0  0
 15 18  1  0  0  0  0
 18 19  1  0  0  0  0
 18 20  1  0  0  0  0
 21 22  1  0  0  0  0
 21 23  1  0  0  0  0
 21 24  1  0  0  0  0
 24 25  1  0  0  0  0
 24 26  1  0  0  0  0
 24 27  1  0  0  0  0
 27 28  1  0  0  0  0
 27 29  1  0  0  0  0
M  END
$$$$
