
     RDKit          3D

 64 65  0  0  0  0  0  0  0  0999 V2000
    2.8514    0.3571   -2.0537 C   0  0  0  0  0  0  0  0  0  0  0  0
    2.0336   -0.1256   -0.9256 C   0  0  0  0  0  0  0  0  0  0  0  0
    0.7488    0.2490   -0.7852 N   0  0  0  0  0  0  0  0  0  0  0  0
    0.1653   -0.2555    0.2533 N   0  0  0  0  0  0  0  0  0  0  0  0
   -1.5699   -0.0020    0.8041 Pt  0  0  0  0  0  6  0  0  0  0  0  0
   -0.7204    0.6141    2.3812 C   0  0  0  0  0  0  0  0  0  0  0  0
   -1.4360   -1.6923    1.6436 C   0  0  0  0  0  0  0  0  0  0  0  0
   -3.1829    0.1967    1.7308 C   0  0  0  0  0  0  0  0  0  0  0  0
   -1.6498    1.8105    0.2051 P   0  0  0  0  0  5  0  0  0  0  0  0
   -1.4752    2.8823    1.7083 C   0  0  0  0  0  0  0  0  0  0  0  0
   -3.2506    2.4748   -0.1538 C   0  0  0  0  0  0  0  0  0  0  0  0
   -0.2615    2.5378   -0.5609 C   0  0  0  0  0  0  0  0  0  0  0  0
   -2.3332   -0.9121   -0.6917 P   0  0  0  0  0  5  0  0  0  0  0  0
   -1.3807   -2.3486   -1.2389 C   0  0  0  0  0  0  0  0  0  0  0  0
   -3.7181   -1.9149   -0.0088 C   0  0  0  0  0  0  0  0  0  0  0  0
   -3.3517   -0.1421   -1.8304 C   0  0  0  0  0  0  0  0  0  0  0  0
    1.0848   -1.0042    0.8472 N   0  0  0  0  0  0  0  0  0  0  0  0
    2.2331   -0.9438    0.1506 C   0  0  0  0  0  0  0  0  0  0  0  0
    3.4447   -1.7088    0.6105 C   0  0  0  0  0  0  0  0  0  0  0  0
    4.6157   -0.8028    0.9031 C   0  0  0  0  0  0  0  0  0  0  0  0
    5.5938   -0.9179   -0.2190 C   0  0  0  0  0  0  0  0  0  0  0  0
    5.0046   -0.8445   -1.5868 C   0  0  0  0  0  0  0  0  0  0  0  0
    4.3115    0.4776   -1.7455 C   0  0  0  0  0  0  0  0  0  0  0  0
    2.6933   -0.3366   -2.9065 H   0  0  0  0  0  0  0  0  0  0  0  0
    2.5155    1.3539   -2.4135 H   0  0  0  0  0  0  0  0  0  0  0  0
    0.3062    1.0169    2.1727 H   0  0  0  0  0  0  0  0  0  0  0  0
   -1.3495    1.1904    3.0364 H   0  0  0  0  0  0  0  0  0  0  0  0
   -0.4049   -0.2401    3.0712 H   0  0  0  0  0  0  0  0  0  0  0  0
   -2.3049   -1.9246    2.2868 H   0  0  0  0  0  0  0  0  0  0  0  0
   -0.5595   -1.7257    2.3591 H   0  0  0  0  0  0  0  0  0  0  0  0
   -1.2771   -2.5146    0.9669 H   0  0  0  0  0  0  0  0  0  0  0  0
   -3.0721    0.8393    2.6307 H   0  0  0  0  0  0  0  0  0  0  0  0
   -3.9407    0.6891    1.1378 H   0  0  0  0  0  0  0  0  0  0  0  0
   -3.5294   -0.7487    2.2122 H   0  0  0  0  0  0  0  0  0  0  0  0
   -1.7440    1.3372   -0.9792 H   0  0  0  0  0  0  0  0  0  0  0  0
   -1.5310    3.9581    1.3342 H   0  0  0  0  0  0  0  0  0  0  0  0
   -2.3497    2.6747    2.2812 H   0  0  0  0  0  0  0  0  0  0  0  0
   -0.5020    2.7784    2.0855 H   0  0  0  0  0  0  0  0  0  0  0  0
   -3.8115    3.0220    0.6773 H   0  0  0  0  0  0  0  0  0  0  0  0
   -4.0812    1.8157   -0.4517 H   0  0  0  0  0  0  0  0  0  0  0  0
   -3.2219    3.3373   -0.8970 H   0  0  0  0  0  0  0  0  0  0  0  0
    0.2209    2.4189   -1.5164 H   0  0  0  0  0  0  0  0  0  0  0  0
    0.6304    2.5819    0.1391 H   0  0  0  0  0  0  0  0  0  0  0  0
   -0.5442    3.6373   -0.6540 H   0  0  0  0  0  0  0  0  0  0  0  0
   -1.4544   -0.3565   -1.5027 H   0  0  0  0  0  0  0  0  0  0  0  0
   -0.3144   -2.3979   -0.8632 H   0  0  0  0  0  0  0  0  0  0  0  0
   -1.7122   -3.3463   -0.8017 H   0  0  0  0  0  0  0  0  0  0  0  0
   -1.4796   -2.6203   -2.3101 H   0  0  0  0  0  0  0  0  0  0  0  0
   -3.2561   -2.6187    0.6482 H   0  0  0  0  0  0  0  0  0  0  0  0
   -4.1554   -2.5357   -0.8307 H   0  0  0  0  0  0  0  0  0  0  0  0
   -4.3671   -1.1625    0.4126 H   0  0  0  0  0  0  0  0  0  0  0  0
   -4.4793   -0.0872   -1.6216 H   0  0  0  0  0  0  0  0  0  0  0  0
   -3.2976    0.7868   -2.4172 H   0  0  0  0  0  0  0  0  0  0  0  0
   -3.4589   -0.9143   -2.6823 H   0  0  0  0  0  0  0  0  0  0  0  0
    3.2014   -2.2168    1.5901 H   0  0  0  0  0  0  0  0  0  0  0  0
    3.6750   -2.5439   -0.0766 H   0  0  0  0  0  0  0  0  0  0  0  0
    5.1258   -1.0731    1.8503 H   0  0  0  0  0  0  0  0  0  0  0  0
    4.1911    0.2342    1.0146 H   0  0  0  0  0  0  0  0  0  0  0  0
    6.1942   -1.8379   -0.0653 H   0  0  0  0  0  0  0  0  0  0  0  0
    6.2737   -0.0206   -0.1269 H   0  0  0  0  0  0  0  0  0  0  0  0
    5.8707   -0.9512   -2.3000 H   0  0  0  0  0  0  0  0  0  0  0  0
    4.3131   -1.6436   -1.8526 H   0  0  0  0  0  0  0  0  0  0  0  0
    4.4421    1.1570   -0.8637 H   0  0  0  0  0  0  0  0  0  0  0  0
    4.7882    1.0027   -2.5995 H   0  0  0  0  0  0  0  0  0  0  0  0
  1  2  1  0
  2  3  2  0
  3  4  1  0
  4  5  1  0
  5  6  1  0
  5  7  1  0
  5  8  1  0
  5  9  1  0
  9 10  1  0
  9 11  1  0
  9 12  1  0
  5 13  1  0
 13 14  1  0
 13 15  1  0
 13 16  1  0
  4 17  1  0
 17 18  2  0
 18 19  1  0
 19 20  1  0
 20 21  1  0
 21 22  1  0
 22 23  1  0
 23  1  1  0
 18  2  1  0
  1 24  1  0
  1 25  1  0
  6 26  1  0
  6 27  1  0
  6 28  1  0
  7 29  1  0
  7 30  1  0
  7 31  1  0
  8 32  1  0
  8 33  1  0
  8 34  1  0
  9 35  1  0
 10 36  1  0
 10 37  1  0
 10 38  1  0
 11 39  1  0
 11 40  1  0
 11 41  1  0
 12 42  1  0
 12 43  1  0
 12 44  1  0
 13 45  1  0
 14 46  1  0
 14 47  1  0
 14 48  1  0
 15 49  1  0
 15 50  1  0
 15 51  1  0
 16 52  1  0
 16 53  1  0
 16 54  1  0
 19 55  1  0
 19 56  1  0
 20 57  1  0
 20 58  1  0
 21 59  1  0
 21 60  1  0
 22 61  1  0
 22 62  1  0
 23 63  1  0
 23 64  1  0
M  END
