
  --CCDC--092525    3D                              

 64 65  0  0  0  0  0  0  0  0999 V2000
    0.3884    0.6751   -0.9622 H      0
    1.0194    1.1930   -0.2414 C      0
    1.3939    0.4800    0.4916 H      0
    0.1590    2.2094    0.4900 C      0
   -1.0475    2.5324    0.0815 N      0
   -1.5417    3.5227    0.8603 N      0
   -2.8629    3.8870    0.9070 O      0
   -3.0126    3.3418    2.2407 C      0
   -3.8352    2.6412    2.3648 H      0
   -2.1599    2.7966    2.6349 H      0
   -3.2677    4.0465    3.0049 H      0
   -3.2188    2.5136    0.5594 C      0
   -3.0491    2.1804   -0.4530 H      0
   -2.6976    1.7694    1.1630 H      0
   -4.2576    2.2228    0.7060 H      0
   -4.2447    4.2664    0.8285 C      0
   -4.8735    3.6589    0.1939 H      0
   -4.4282    5.2560    0.4529 H      0
   -4.7634    4.1667    1.7769 H      0
   -2.6827    4.3666   -0.7077 P      0
   -3.2222    5.9731   -1.3927 C      0
   -4.2712    6.1887   -1.2079 H      0
   -2.6605    6.8296   -1.0485 H      0
   -3.0997    5.9486   -2.4735 H      0
   -4.0818    3.8810   -1.7791 C      0
   -4.3314    2.8255   -1.7128 H      0
   -3.8143    4.0738   -2.8159 H      0
   -4.9930    4.4454   -1.5919 H      0
   -1.0078    4.8623   -1.2381 C      0
   -0.7509    4.3217   -2.1466 H      0
   -0.1984    4.6936   -0.5330 H      0
   -0.9916    5.9164   -1.5013 H      0
   -2.5604    5.3921    1.6454 P      0
   -1.6093    5.5204    3.2111 C      0
   -1.6141    4.6301    3.8355 H      0
   -2.0110    6.3295    3.8161 H      0
   -0.5683    5.7865    3.0367 H      0
   -3.9812    6.1602    2.5184 C      0
   -4.7310    6.5530    1.8347 H      0
   -3.6387    7.0152    3.0967 H      0
   -4.4857    5.4890    3.2091 H      0
   -1.1334    6.3858    1.0930 C      0
   -0.1926    5.8494    1.0318 H      0
   -0.9802    7.1856    1.8149 H      0
   -1.2871    6.9003    0.1570 H      0
   -0.6055    3.8126    1.7734 N      0
    0.4474    3.0461    1.5955 C      0
    1.7040    3.1727    2.4195 C      0
    2.1276    2.1803    2.5673 H      0
    1.4476    3.6054    3.3854 H      0
    2.7459    4.0546    1.7491 C      0
    3.7002    3.8642    2.2381 H      0
    2.4538    5.0906    1.9143 H      0
    2.9515    3.8712    0.2630 C      0
    3.7623    4.5295   -0.0455 H      0
    2.0321    4.1673   -0.2401 H      0
    3.3022    2.4431   -0.1965 C      0
    3.5069    1.8400    0.6868 H      0
    4.1957    2.4930   -0.8170 H      0
    2.2120    1.7678   -0.9890 C      0
    1.8255    2.5023   -1.6941 H      0
    2.6738    0.9473   -1.5362 H      0
   -2.2114    3.3323   -1.5255 H      0
   -3.0018    6.4454    0.8473 H      0
  1  2  1
  2  3  1
  2  4  1
  4  5  2
  5  6  1
  6  7  1
  7  8  1
  8  9  1
  8 10  1
  8 11  1
  7 12  1
 12 13  1
 12 14  1
 12 15  1
  7 16  1
 16 17  1
 16 18  1
 16 19  1
  7 20  1
 20 21  1
 21 22  1
 21 23  1
 21 24  1
 20 25  1
 25 26  1
 25 27  1
 25 28  1
 20 29  1
 29 30  1
 29 31  1
 29 32  1
  7 33  1
 33 34  1
 34 35  1
 34 36  1
 34 37  1
 33 38  1
 38 39  1
 38 40  1
 38 41  1
 33 42  1
 42 43  1
 42 44  1
 42 45  1
  6 46  1
 46 47  2
  4 47  1
 47 48  1
 48 49  1
 48 50  1
 48 51  1
 51 52  1
 51 53  1
 51 54  1
 54 55  1
 54 56  1
 54 57  1
 57 58  1
 57 59  1
 57 60  1
  2 60  1
 60 61  1
 60 62  1
 20 63  1
 33 64  1
M  END
$$$$
