
  --CCDC--092525    3D                              

 46 54  0  0  0  0  0  0  0  0999 V2000
    0.2344    0.2075   -0.0311 Cl     0
    1.7629    2.0624   -0.0515 Ir     0
    1.0609    1.7793   -2.0139 C      0
    0.4202    2.8230   -1.4549 C      0
   -0.7638    3.7278   -1.3982 C      0
   -1.5968    4.3928   -2.2406 C      0
   -2.8455    4.7761   -1.7647 C      0
   -3.2305    4.4921   -0.4788 C      0
   -2.3601    3.7958    0.4044 C      0
   -2.7001    3.4409    1.7272 C      0
   -1.7872    2.7446    2.4621 C      0
   -0.5694    2.4054    1.9092 C      0
   -0.1345    2.6996    0.6337 C      0
   -1.1047    3.4148   -0.0855 C      0
    3.5090    2.8799   -0.3123 C      0
    3.8567    3.7361   -1.5427 C      0
    2.8858    3.3490    0.8768 C      0
    2.4810    4.7945    1.1862 C      0
    2.6277    2.2111    1.6954 C      0
    2.0343    2.2501    3.1113 C      0
    3.0561    1.0457    1.0037 C      0
    2.8886   -0.4051    1.4814 C      0
    3.6093    1.4573   -0.2363 C      0
    4.1154    0.5273   -1.3575 C      0
    0.7649    1.0011   -2.7421 H      0
   -1.2943    4.6197   -3.2618 H      0
   -3.5290    5.3103   -2.4231 H      0
   -4.2142    4.8034   -0.1305 H      0
   -3.6656    3.7158    2.1494 H      0
   -2.0192    2.4560    3.4862 H      0
    0.1182    1.8488    2.5443 H      0
    3.0052    3.8072   -2.2163 H      0
    4.6885    3.3010   -2.0928 H      0
    4.1379    4.7439   -1.2443 H      0
    3.1696    5.4960    0.7200 H      0
    2.4873    4.9755    2.2590 H      0
    1.4804    5.0030    0.8132 H      0
    1.5245    1.3180    3.3449 H      0
    1.3227    3.0666    3.2126 H      0
    2.8195    2.3966    3.8501 H      0
    2.5261   -1.0392    0.6752 H      0
    2.1786   -0.4612    2.3038 H      0
    3.8385   -0.8084    1.8261 H      0
    3.3041    0.2571   -2.0301 H      0
    4.8922    1.0155   -1.9423 H      0
    4.5298   -0.3886   -0.9412 H      0
  1  2  1
  2  3  1
  3  4  2
  2  4  1
  4  5  1
  5  6  4
  6  7  4
  7  8  4
  8  9  4
  9 10  4
 10 11  4
 11 12  4
 12 13  4
  2 13  1
 13 14  4
  5 14  4
  9 14  4
  2 15  1
 15 16  1
 15 17  4
  2 17  1
 17 18  1
 17 19  4
  2 19  1
 19 20  1
 19 21  4
  2 21  1
 21 22  1
 21 23  4
  2 23  1
 15 23  4
 23 24  1
  3 25  1
  6 26  1
  7 27  1
  8 28  1
 10 29  1
 11 30  1
 12 31  1
 16 32  1
 16 33  1
 16 34  1
 18 35  1
 18 36  1
 18 37  1
 20 38  1
 20 39  1
 20 40  1
 22 41  1
 22 42  1
 22 43  1
 24 44  1
 24 45  1
 24 46  1
M  END
$$$$
