
     RDKit          3D

 46 54  0  0  0  0  0  0  0  0999 V2000
    0.0337    2.7233    0.1182 Cl  0  0  0  0  0  0  0  0  0  0  0  0
   -0.4696    0.7296   -0.2471 Ir  0  0  0  0  0  9  0  0  0  0  0  0
   -0.0718    1.4667   -2.0593 C   0  0  0  0  0  0  0  0  0  0  0  0
    0.8274    0.7587   -1.5931 C   0  0  0  0  0  0  0  0  0  0  0  0
    2.0695   -0.0435   -1.2848 C   0  0  0  0  0  0  0  0  0  0  0  0
    3.1319   -0.4790   -2.0854 C   0  0  0  0  0  0  0  0  0  0  0  0
    4.2283   -1.0161   -1.5655 C   0  0  0  0  0  0  0  0  0  0  0  0
    4.2732   -1.1210   -0.2087 C   0  0  0  0  0  0  0  0  0  0  0  0
    3.2064   -0.6872    0.5398 C   0  0  0  0  0  0  0  0  0  0  0  0
    3.5376   -0.7645    1.9063 C   0  0  0  0  0  0  0  0  0  0  0  0
    2.6074   -0.2477    2.7740 C   0  0  0  0  0  0  0  0  0  0  0  0
    1.4862    0.2609    2.1891 C   0  0  0  0  0  0  0  0  0  0  0  0
    1.0386    0.3867    0.8311 C   0  0  0  0  0  0  0  0  0  0  0  0
    2.0152   -0.1256    0.0484 C   0  0  0  0  0  0  0  0  0  0  0  0
   -1.6585    1.1074    0.8727 C   0  0  0  0  0  0  0  0  0  0  0  0
   -1.8597    1.4309    2.2671 C   0  0  0  0  0  0  0  0  0  0  0  0
   -2.1265    1.3052   -0.3136 C   0  0  0  0  0  0  0  0  0  0  0  0
   -2.9930    2.2873   -0.7953 C   0  0  0  0  0  0  0  0  0  0  0  0
   -1.9479    0.0568   -0.9982 C   0  0  0  0  0  0  0  0  0  0  0  0
   -2.5307   -0.5000   -2.1326 C   0  0  0  0  0  0  0  0  0  0  0  0
   -0.9514   -0.7586   -0.5283 C   0  0  0  0  0  0  0  0  0  0  0  0
   -0.4690   -2.0769   -0.8000 C   0  0  0  0  0  0  0  0  0  0  0  0
   -1.3365   -0.2926    0.6732 C   0  0  0  0  0  0  0  0  0  0  0  0
   -1.9470   -1.2215    1.4437 C   0  0  0  0  0  0  0  0  0  0  0  0
   -0.1426    2.0252   -3.0737 H   0  0  0  0  0  0  0  0  0  0  0  0
    3.0242   -0.3676   -3.1574 H   0  0  0  0  0  0  0  0  0  0  0  0
    4.9968   -1.3284   -2.2409 H   0  0  0  0  0  0  0  0  0  0  0  0
    5.1640   -1.5492    0.1822 H   0  0  0  0  0  0  0  0  0  0  0  0
    4.4289   -1.1798    2.3321 H   0  0  0  0  0  0  0  0  0  0  0  0
    2.6611   -0.1993    3.8231 H   0  0  0  0  0  0  0  0  0  0  0  0
    0.7432    0.7000    2.8958 H   0  0  0  0  0  0  0  0  0  0  0  0
   -1.7665    0.6375    3.0230 H   0  0  0  0  0  0  0  0  0  0  0  0
   -1.2062    2.3203    2.5260 H   0  0  0  0  0  0  0  0  0  0  0  0
   -2.8810    1.8592    2.3310 H   0  0  0  0  0  0  0  0  0  0  0  0
   -3.9469    2.3117   -0.2322 H   0  0  0  0  0  0  0  0  0  0  0  0
   -2.5753    3.3293   -0.6559 H   0  0  0  0  0  0  0  0  0  0  0  0
   -3.1991    2.2494   -1.8934 H   0  0  0  0  0  0  0  0  0  0  0  0
   -3.1942   -1.3358   -1.8995 H   0  0  0  0  0  0  0  0  0  0  0  0
   -3.0474    0.2941   -2.7447 H   0  0  0  0  0  0  0  0  0  0  0  0
   -1.7933   -0.9245   -2.8780 H   0  0  0  0  0  0  0  0  0  0  0  0
   -0.8336   -2.3906   -1.7972 H   0  0  0  0  0  0  0  0  0  0  0  0
    0.6515   -2.2032   -0.8822 H   0  0  0  0  0  0  0  0  0  0  0  0
   -0.7400   -2.7460    0.0338 H   0  0  0  0  0  0  0  0  0  0  0  0
   -1.2301   -1.7016    2.1788 H   0  0  0  0  0  0  0  0  0  0  0  0
   -2.7748   -0.8407    2.0885 H   0  0  0  0  0  0  0  0  0  0  0  0
   -2.4324   -2.1392    0.9890 H   0  0  0  0  0  0  0  0  0  0  0  0
  1  2  1  0
  2  3  1  0
  3  4  2  0
  4  5  1  0
  5  6  2  0
  6  7  1  0
  7  8  2  0
  8  9  1  0
  9 10  2  0
 10 11  1  0
 11 12  2  0
 12 13  1  0
 13 14  2  0
  2 15  1  0
 15 16  1  0
 15 17  1  0
 17 18  1  0
 17 19  1  0
 19 20  1  0
 19 21  1  0
 21 22  1  0
 21 23  1  0
 23 24  1  0
  4  2  1  0
 14  5  1  0
 23 15  1  0
 13  2  1  0
 17  2  1  0
 19  2  1  0
 21  2  1  0
 23  2  1  0
 14  9  1  0
  3 25  1  0
  6 26  1  0
  7 27  1  0
  8 28  1  0
 10 29  1  0
 11 30  1  0
 12 31  1  0
 16 32  1  0
 16 33  1  0
 16 34  1  0
 18 35  1  0
 18 36  1  0
 18 37  1  0
 20 38  1  0
 20 39  1  0
 20 40  1  0
 22 41  1  0
 22 42  1  0
 22 43  1  0
 24 44  1  0
 24 45  1  0
 24 46  1  0
M  END
