
 OpenBabel09252516393D

 76 82  0  0  1  0  0  0  0  0999 V2000
    1.0227    0.0212    0.0951 H   0  0  0  0  0  0  0  0  0  0  0  0
    2.0927    0.0212    0.0951 C   0  0  0  0  0  3  0  0  0  0  0  0
    2.6050   -1.3617   -0.3141 C   0  0  0  0  0  3  0  0  0  0  0  0
    2.2158   -2.0991    0.3565 H   0  0  0  0  0  0  0  0  0  0  0  0
    2.1747   -1.6539   -1.6453 C   0  0  0  0  0  3  0  0  0  0  0  0
    2.5150   -2.6357   -1.9007 H   0  0  0  0  0  0  0  0  0  0  0  0
    2.6622   -0.7399   -2.6293 C   0  0  0  0  0  3  0  0  0  0  0  0
    4.4921   -0.7441   -2.6128 P   0  0  0  0  0  0  0  0  0  0  0  0
    4.4831   -2.4908   -2.0669 C   0  0  0  0  0  3  0  0  0  0  0  0
    3.7379   -2.5902   -0.7338 C   0  0  0  0  0  3  0  0  0  0  0  0
    4.2065   -1.9513   -0.0146 H   0  0  0  0  0  0  0  0  0  0  0  0
    2.3793   -2.1861   -0.9168 C   0  0  0  0  0  3  0  0  0  0  0  0
    1.8845   -2.2320    0.0308 H   0  0  0  0  0  0  0  0  0  0  0  0
    1.6506   -2.9935   -1.8432 C   0  0  0  0  0  3  0  0  0  0  0  0
    1.6510   -4.0097   -1.5081 H   0  0  0  0  0  0  0  0  0  0  0  0
    2.3113   -2.9104   -3.2212 C   0  0  0  0  0  3  0  0  0  0  0  0
    1.7921   -3.5474   -3.9064 H   0  0  0  0  0  0  0  0  0  0  0  0
    3.7707   -3.3619   -3.1068 C   0  0  0  0  0  3  0  0  0  0  0  0
    3.8061   -4.3867   -2.8009 H   0  0  0  0  0  0  0  0  0  0  0  0
    4.4840    0.6020   -1.3731 C   0  0  0  0  0  3  0  0  0  0  0  0
    3.7651    1.8256   -1.9460 C   0  0  0  0  0  3  0  0  0  0  0  0
    4.2492    2.1334   -2.8492 H   0  0  0  0  0  0  0  0  0  0  0  0
    2.4041    1.4905   -2.2252 C   0  0  0  0  0  3  0  0  0  0  0  0
    1.9279    2.3476   -2.6536 H   0  0  0  0  0  0  0  0  0  0  0  0
    1.6553    1.0883   -1.0768 C   0  0  0  0  0  3  0  0  0  0  0  0
    1.6599    1.8771   -0.3537 H   0  0  0  0  0  0  0  0  0  0  0  0
    2.2889   -0.1651   -0.4687 C   0  0  0  0  0  3  0  0  0  0  0  0
    1.7547   -0.4433    0.4157 H   0  0  0  0  0  0  0  0  0  0  0  0
    3.7491    0.1318   -0.1135 C   0  0  0  0  0  3  0  0  0  0  0  0
    3.8046    1.2210    0.9452 C   0  0  0  0  0  0  0  0  0  0  0  0
    4.9666    1.6364    1.4014 N   0  0  0  0  0  0  0  0  0  0  0  0
    5.0202    2.6899    2.4253 C   0  0  0  0  0  3  0  0  0  0  0  0
    6.4465    3.2412    2.4869 C   0  0  0  0  0  3  0  0  0  0  0  0
    7.1285    2.4439    2.6969 H   0  0  0  0  0  0  0  0  0  0  0  0
    6.7813    3.8362    1.2313 C   0  0  0  0  0  3  0  0  0  0  0  0
    7.7910    4.1866    1.2840 H   0  0  0  0  0  0  0  0  0  0  0  0
    5.9438    4.9343    0.8648 C   0  0  0  0  0  3  0  0  0  0  0  0
    6.0018    5.6936    1.6164 H   0  0  0  0  0  0  0  0  0  0  0  0
    4.4971    4.4514    0.7376 C   0  0  0  0  0  3  0  0  0  0  0  0
    3.8621    5.2805    0.5046 H   0  0  0  0  0  0  0  0  0  0  0  0
    4.0575    3.8262    2.0652 C   0  0  1  0  0  0  0  0  0  0  0  0
    4.0759    4.5692    2.8350 H   0  0  0  0  0  0  0  0  0  0  0  0
    4.5138   -0.2341   -4.8862 Co  0  0  0  0  0  0  0  0  0  0  0  0
    6.8437   -0.2395   -4.8651 P   0  0  0  0  0  0  0  0  0  0  0  0
    6.8551    1.3893   -5.6992 C   0  0  0  0  0  0  0  0  0  0  0  0
    5.9801    1.9387   -5.4208 H   0  0  0  0  0  0  0  0  0  0  0  0
    7.7274    1.9346   -5.4050 H   0  0  0  0  0  0  0  0  0  0  0  0
    6.8643    1.2468   -6.7597 H   0  0  0  0  0  0  0  0  0  0  0  0
    6.8270   -0.3314   -3.0374 C   0  0  0  0  0  0  0  0  0  0  0  0
    5.9492   -0.8511   -2.7145 H   0  0  0  0  0  0  0  0  0  0  0  0
    7.6964   -0.8551   -2.6987 H   0  0  0  0  0  0  0  0  0  0  0  0
    6.8256    0.6582   -2.6306 H   0  0  0  0  0  0  0  0  0  0  0  0
    6.8492   -1.7764   -5.8585 C   0  0  0  0  0  0  0  0  0  0  0  0
    7.3624   -1.6028   -6.7812 H   0  0  0  0  0  0  0  0  0  0  0  0
    7.3469   -2.5514   -5.3139 H   0  0  0  0  0  0  0  0  0  0  0  0
    5.8415   -2.0736   -6.0613 H   0  0  0  0  0  0  0  0  0  0  0  0
    4.5132   -2.5076   -5.3962 P   0  0  0  0  0  0  0  0  0  0  0  0
    6.3390   -2.5354   -5.2745 C   0  0  0  0  0  0  0  0  0  0  0  0
    6.6606   -1.7985   -4.5686 H   0  0  0  0  0  0  0  0  0  0  0  0
    6.6602   -3.5034   -4.9511 H   0  0  0  0  0  0  0  0  0  0  0  0
    6.7636   -2.3205   -6.2329 H   0  0  0  0  0  0  0  0  0  0  0  0
    3.4923   -2.8398   -3.9142 C   0  0  0  0  0  0  0  0  0  0  0  0
    2.8749   -1.9904   -3.7087 H   0  0  0  0  0  0  0  0  0  0  0  0
    2.8745   -3.6953   -4.0911 H   0  0  0  0  0  0  0  0  0  0  0  0
    4.1305   -3.0279   -3.0763 H   0  0  0  0  0  0  0  0  0  0  0  0
    3.7084   -2.1476   -6.9998 C   0  0  0  0  0  0  0  0  0  0  0  0
    4.3360   -2.4858   -7.7977 H   0  0  0  0  0  0  0  0  0  0  0  0
    2.7668   -2.6535   -7.0478 H   0  0  0  0  0  0  0  0  0  0  0  0
    3.5518   -1.0931   -7.0915 H   0  0  0  0  0  0  0  0  0  0  0  0
    2.1522    0.6683   -2.3138 C   0  0  0  0  0  3  0  0  0  0  0  0
    2.5505    1.3611   -3.0253 H   0  0  0  0  0  0  0  0  0  0  0  0
    2.6056    1.0628   -0.9048 C   0  0  0  0  0  3  0  0  0  0  0  0
    3.6744    1.0987   -0.8688 H   0  0  0  0  0  0  0  0  0  0  0  0
    5.8720   -0.7473   -2.6003 H   0  0  0  0  0  0  0  0  0  0  0  0
    8.2237   -0.2427   -4.8526 H   0  0  0  0  0  0  0  0  0  0  0  0
    4.5128   -3.8541   -5.6983 H   0  0  0  0  0  0  0  0  0  0  0  0
  1  2  1  0  0  0  0
  2  3  1  0  0  0  0
  2 72  1  0  0  0  0
  3  4  1  0  0  0  0
  3  5  1  0  0  0  0
  5  6  1  0  0  0  0
  5  7  1  0  0  0  0
  7  8  1  0  0  0  0
  7 70  1  0  0  0  0
  8  9  1  0  0  0  0
  8 20  1  0  0  0  0
  8 43  1  0  0  0  0
  8 74  1  0  0  0  0
  9 10  1  0  0  0  0
  9 18  1  0  0  0  0
 10 11  1  0  0  0  0
 10 12  1  0  0  0  0
 12 13  1  0  0  0  0
 12 14  1  0  0  0  0
 14 15  1  0  0  0  0
 14 16  1  0  0  0  0
 16 17  1  0  0  0  0
 16 18  1  0  0  0  0
 18 19  1  0  0  0  0
 20 21  1  0  0  0  0
 20 29  1  0  0  0  0
 21 22  1  0  0  0  0
 21 23  1  0  0  0  0
 23 24  1  0  0  0  0
 23 25  1  0  0  0  0
 25 26  1  0  0  0  0
 25 27  1  0  0  0  0
 27 28  1  0  0  0  0
 27 29  1  0  0  0  0
 29 30  1  0  0  0  0
 30 31  2  0  0  0  0
 30 43  1  0  0  0  0
 31 32  1  0  0  0  0
 32 33  1  0  0  0  0
 32 41  1  0  0  0  0
 33 34  1  0  0  0  0
 33 35  1  0  0  0  0
 35 36  1  0  0  0  0
 35 37  1  0  0  0  0
 37 38  1  0  0  0  0
 37 39  1  0  0  0  0
 39 40  1  0  0  0  0
 39 41  1  0  0  0  0
 41 42  1  1  0  0  0
 41 43  1  0  0  0  0
 42 43  1  0  0  0  0
 43 44  1  0  0  0  0
 43 57  1  0  0  0  0
 44 45  1  0  0  0  0
 44 49  1  0  0  0  0
 44 53  1  0  0  0  0
 44 75  1  0  0  0  0
 45 46  1  0  0  0  0
 45 47  1  0  0  0  0
 45 48  1  0  0  0  0
 49 50  1  0  0  0  0
 49 51  1  0  0  0  0
 49 52  1  0  0  0  0
 53 54  1  0  0  0  0
 53 55  1  0  0  0  0
 53 56  1  0  0  0  0
 57 58  1  0  0  0  0
 57 62  1  0  0  0  0
 57 66  1  0  0  0  0
 57 76  1  0  0  0  0
 58 59  1  0  0  0  0
 58 60  1  0  0  0  0
 58 61  1  0  0  0  0
 62 63  1  0  0  0  0
 62 64  1  0  0  0  0
 62 65  1  0  0  0  0
 66 67  1  0  0  0  0
 66 68  1  0  0  0  0
 66 69  1  0  0  0  0
 70 71  1  0  0  0  0
 70 72  1  0  0  0  0
 72 73  1  0  0  0  0
M  END
$$$$
