
 OpenBabel09252517063D

 68 74  0  0  1  0  0  0  0  0999 V2000
    0.9231   -0.0471    0.0433 H   0  0  0  0  0  0  0  0  0  0  0  0
    1.9931   -0.0471    0.0433 C   0  0  0  0  0  0  0  0  0  0  0  0
    2.3498    0.9602   -0.0124 H   0  0  0  0  0  0  0  0  0  0  0  0
    2.3498   -0.5025    0.9435 H   0  0  0  0  0  0  0  0  0  0  0  0
    2.5965   -0.9806   -1.3852 S   0  0  0  0  0  0  0  0  0  0  0  0
    2.0863   -0.3293   -2.6727 O   0  0  0  0  0  0  0  0  0  0  0  0
   -0.4896   -0.1132   -3.0999 U   0  3  0  0  0  0  0  0  0  0  0  0
   -0.8889   -0.9489   -5.5507 O   0  0  0  0  0  0  0  0  0  0  0  0
   -1.3898    0.0254   -6.6194 S   0  0  0  0  0  0  0  0  0  0  0  0
   -0.2020    1.3782   -6.8068 C   0  0  0  0  0  0  0  0  0  0  0  0
    0.7467    0.9815   -7.1024 H   0  0  0  0  0  0  0  0  0  0  0  0
   -0.5523    2.0594   -7.5540 H   0  0  0  0  0  0  0  0  0  0  0  0
   -0.0984    1.8935   -5.8748 H   0  0  0  0  0  0  0  0  0  0  0  0
   -1.5651   -0.8463   -8.1960 C   0  0  0  0  0  0  0  0  0  0  0  0
   -0.6164   -1.2430   -8.4916 H   0  0  0  0  0  0  0  0  0  0  0  0
   -2.2673   -1.6460   -8.0852 H   0  0  0  0  0  0  0  0  0  0  0  0
   -1.9153   -0.1651   -8.9431 H   0  0  0  0  0  0  0  0  0  0  0  0
   -0.5831   -1.7726   -5.1253 O   0  0  0  0  0  0  0  0  0  0  0  0
   -1.8199   -2.0349   -5.7717 C   0  0  0  0  0  0  0  0  0  0  0  0
   -1.8653   -2.8398   -6.7542 O   0  0  0  0  0  0  0  0  0  0  0  0
   -5.1677    2.1655   -0.6406 C   0  0  0  0  0  0  0  0  0  0  0  0
   -5.6358    1.2165   -0.4820 H   0  0  0  0  0  0  0  0  0  0  0  0
   -5.3991    2.8182    0.1751 H   0  0  0  0  0  0  0  0  0  0  0  0
   -3.7113    1.9853   -0.7260 N   0  0  1  0  0  4  0  0  0  0  0  0
   -3.4153    3.0776    0.3033 C   0  0  0  0  0  0  0  0  0  0  0  0
   -4.3176    3.6081    0.5255 H   0  0  0  0  0  0  0  0  0  0  0  0
   -2.6887    3.7543   -0.0956 H   0  0  0  0  0  0  0  0  0  0  0  0
   -2.8714    2.4462    1.5854 C   0  0  0  0  0  0  0  0  0  0  0  0
   -3.1918    1.4269    1.6424 H   0  0  0  0  0  0  0  0  0  0  0  0
   -3.2403    2.9862    2.4323 H   0  0  0  0  0  0  0  0  0  0  0  0
   -1.3424    2.4975    1.5759 N   0  0  1  0  0  4  0  0  0  0  0  0
   -3.8298   -0.4655   -1.7559 C   0  0  0  0  0  0  0  0  0  0  0  0
   -4.1087   -1.2646   -1.1013 H   0  0  0  0  0  0  0  0  0  0  0  0
   -2.8205   -0.1740   -1.5530 H   0  0  0  0  0  0  0  0  0  0  0  0
   -3.9428   -0.9297   -3.1989 C   0  0  0  0  0  0  0  0  0  0  0  0
   -5.0623   -1.3230   -3.6541 O   0  0  0  0  0  0  0  0  0  0  0  0
   -2.7975   -0.9240   -4.0383 O   0  0  0  0  0  0  0  0  0  0  0  0
   -0.7829    1.1931    2.1448 C   0  0  0  0  0  0  0  0  0  0  0  0
   -0.7249    1.2668    3.2107 H   0  0  0  0  0  0  0  0  0  0  0  0
   -1.4273    0.3822    1.8760 H   0  0  0  0  0  0  0  0  0  0  0  0
    0.6149    0.9421    1.5767 C   0  0  0  0  0  0  0  0  0  0  0  0
    1.3309    0.9654    2.3716 H   0  0  0  0  0  0  0  0  0  0  0  0
    0.8498    1.7015    0.8605 H   0  0  0  0  0  0  0  0  0  0  0  0
    0.6547   -0.4275    0.8978 N   0  0  2  0  0  4  0  0  0  0  0  0
    0.9426   -0.9996    1.6917 H   0  0  0  0  0  0  0  0  0  0  0  0
    0.2924   -0.2799   -0.5814 C   0  0  0  0  0  0  0  0  0  0  0  0
    1.1252   -0.5781   -1.1834 H   0  0  0  0  0  0  0  0  0  0  0  0
    0.0490    0.7412   -0.7886 H   0  0  0  0  0  0  0  0  0  0  0  0
   -0.9128   -1.1669   -0.9043 C   0  0  0  0  0  0  0  0  0  0  0  0
   -1.6555   -1.0431   -0.1440 H   0  0  0  0  0  0  0  0  0  0  0  0
   -0.6009   -2.1898   -0.9414 H   0  0  0  0  0  0  0  0  0  0  0  0
   -1.5043   -0.7675   -2.2567 N   0  0  1  0  0  4  0  0  0  0  0  0
   -1.8781   -2.0057   -3.0511 C   0  0  0  0  0  0  0  0  0  0  0  0
   -1.7389   -2.8988   -2.4784 H   0  0  0  0  0  0  0  0  0  0  0  0
   -2.9097   -1.9707   -3.3330 H   0  0  0  0  0  0  0  0  0  0  0  0
   -1.0917   -1.9891   -4.1445 C   0  0  0  0  0  0  0  0  0  0  0  0
   -1.0976   -2.8891   -5.0419 O   0  0  0  0  0  0  0  0  0  0  0  0
   -0.3039   -0.9084   -4.1691 O   0  0  0  0  0  0  0  0  0  0  0  0
   -2.7280    0.1325   -2.0802 C   0  0  0  0  0  0  0  0  0  0  0  0
   -3.5343   -0.4495   -1.6851 H   0  0  0  0  0  0  0  0  0  0  0  0
   -3.0036    0.5436   -3.0288 H   0  0  0  0  0  0  0  0  0  0  0  0
   -2.4131    1.2709   -1.1091 C   0  0  0  0  0  0  0  0  0  0  0  0
   -1.7471    1.9657   -1.5766 H   0  0  0  0  0  0  0  0  0  0  0  0
   -1.9517    0.8727   -0.2297 H   0  0  0  0  0  0  0  0  0  0  0  0
    4.4065   -0.9806   -1.3852 C   0  0  0  0  0  0  0  0  0  0  0  0
    4.7631    0.0266   -1.4409 H   0  0  0  0  0  0  0  0  0  0  0  0
    4.7631   -1.4360   -0.4850 H   0  0  0  0  0  0  0  0  0  0  0  0
    4.7631   -1.5325   -2.2296 H   0  0  0  0  0  0  0  0  0  0  0  0
  1  2  1  0  0  0  0
  2  3  1  0  0  0  0
  2  4  1  0  0  0  0
  2  5  1  0  0  0  0
  5  6  2  0  0  0  0
  5 65  1  0  0  0  0
  6  7  1  0  0  0  0
  7  8  1  0  0  0  0
  7 18  1  0  0  0  0
  7 24  1  0  0  0  0
  7 31  1  0  0  0  0
  7 37  1  0  0  0  0
  7 44  1  0  0  0  0
  7 52  1  0  0  0  0
  7 58  1  0  0  0  0
  8  9  2  0  0  0  0
  9 10  1  0  0  0  0
  9 14  1  0  0  0  0
 10 11  1  0  0  0  0
 10 12  1  0  0  0  0
 10 13  1  0  0  0  0
 14 15  1  0  0  0  0
 14 16  1  0  0  0  0
 14 17  1  0  0  0  0
 18 19  1  0  0  0  0
 19 20  2  0  0  0  0
 19 21  1  0  0  0  0
 21 22  1  0  0  0  0
 21 23  1  0  0  0  0
 24 21  1  6  0  0  0
 24 25  1  0  0  0  0
 24 62  1  0  0  0  0
 25 26  1  0  0  0  0
 25 27  1  0  0  0  0
 25 28  1  0  0  0  0
 28 29  1  0  0  0  0
 28 30  1  0  0  0  0
 31 28  1  1  0  0  0
 31 32  1  0  0  0  0
 31 38  1  0  0  0  0
 32 33  1  0  0  0  0
 32 34  1  0  0  0  0
 32 35  1  0  0  0  0
 35 36  2  0  0  0  0
 35 37  1  0  0  0  0
 38 39  1  0  0  0  0
 38 40  1  0  0  0  0
 38 41  1  0  0  0  0
 41 42  1  0  0  0  0
 41 43  1  0  0  0  0
 41 44  1  0  0  0  0
 44 45  1  1  0  0  0
 44 46  1  0  0  0  0
 46 47  1  0  0  0  0
 46 48  1  0  0  0  0
 46 49  1  0  0  0  0
 49 50  1  0  0  0  0
 49 51  1  0  0  0  0
 52 49  1  6  0  0  0
 52 53  1  0  0  0  0
 52 59  1  0  0  0  0
 53 54  1  0  0  0  0
 53 55  1  0  0  0  0
 53 56  1  0  0  0  0
 56 57  2  0  0  0  0
 56 58  1  0  0  0  0
 59 60  1  0  0  0  0
 59 61  1  0  0  0  0
 59 62  1  0  0  0  0
 62 63  1  0  0  0  0
 62 64  1  0  0  0  0
 65 66  1  0  0  0  0
 65 67  1  0  0  0  0
 65 68  1  0  0  0  0
M  CHG  1   7   1
M  END
$$$$
