
 OpenBabel09252515463D

 35 38  0  0  0  0  0  0  0  0999 V2000
    1.1075   -0.2770    0.1288 F   0  0  0  0  0  0  0  0  0  0  0  0
    2.4567   -0.1005    0.1592 C   0  0  0  0  0  0  0  0  0  0  0  0
    2.9387   -1.0523    1.0067 F   0  0  0  0  0  0  0  0  0  0  0  0
    2.9064   -0.4466   -1.0799 F   0  0  0  0  0  0  0  0  0  0  0  0
    2.8598    1.3022    0.5377 C   0  0  0  0  0  0  0  0  0  0  0  0
    3.7803    1.5514    1.5631 C   0  0  0  0  0  0  0  0  0  0  0  0
    4.1780    2.8580    1.8501 C   0  0  0  0  0  0  0  0  0  0  0  0
    3.6677    3.9293    1.1120 C   0  0  0  0  0  0  0  0  0  0  0  0
    2.7135    3.7028    0.1197 C   0  0  0  0  0  0  0  0  0  0  0  0
    2.3206    2.3909   -0.1649 C   0  0  0  0  0  0  0  0  0  0  0  0
    2.1076    4.7861   -0.5673 N   0  0  0  0  0  0  0  0  0  0  0  0
    3.1795    6.0930   -1.0568 C   0  0  0  0  0  0  0  0  0  0  0  0
    2.3784    7.3007   -2.0342 C   0  0  0  0  0  0  0  0  0  0  0  0
    2.3677    8.8863   -1.2573 Cl  0  0  0  0  0  0  0  0  0  0  0  0
    1.9733    7.4425   -3.4180 O   0  0  0  0  0  0  0  0  0  0  0  0
    0.9340    6.4607   -3.7619 C   0  0  0  0  0  0  0  0  0  0  0  0
    0.6348    6.3148   -5.6381 Br  0  0  0  0  0  0  0  0  0  0  0  0
   -0.4349    6.4864   -2.9872 C   0  0  0  0  0  0  0  0  0  0  0  0
   -0.0955    6.1447   -1.5291 C   0  0  0  0  0  0  0  0  0  0  0  0
    1.2824    6.4691   -1.6922 C   0  0  0  0  0  0  0  0  0  0  0  0
    1.5015    5.3390   -3.0025 C   0  0  0  0  0  0  0  0  0  0  0  0
    3.3499    4.6073   -3.8940 I   0  0  0  0  0  0  0  0  0  0  0  0
    0.5356    4.7725   -0.7614 C   0  0  0  0  0  0  0  0  0  0  0  0
   -0.1981    3.8567   -0.4104 O   0  0  0  0  0  0  0  0  0  0  0  0
    4.1892    0.7276    2.1465 H   0  0  0  0  0  0  0  0  0  0  0  0
    4.8746    3.0441    2.6646 H   0  0  0  0  0  0  0  0  0  0  0  0
    3.9669    4.9351    1.3887 H   0  0  0  0  0  0  0  0  0  0  0  0
    1.6012    2.1961   -0.9596 H   0  0  0  0  0  0  0  0  0  0  0  0
    3.4601    6.5609   -0.1032 H   0  0  0  0  0  0  0  0  0  0  0  0
    4.0798    5.6651   -1.4961 H   0  0  0  0  0  0  0  0  0  0  0  0
   -1.1550    5.7545   -3.3741 H   0  0  0  0  0  0  0  0  0  0  0  0
   -0.8787    7.4868   -3.0495 H   0  0  0  0  0  0  0  0  0  0  0  0
   -0.6597    6.7393   -0.8036 H   0  0  0  0  0  0  0  0  0  0  0  0
    1.3608    6.6374   -0.5868 H   0  0  0  0  0  0  0  0  0  0  0  0
    0.8331    4.4641   -3.0098 H   0  0  0  0  0  0  0  0  0  0  0  0
  1  2  1  0  0  0  0
  2  3  1  0  0  0  0
  2  4  1  0  0  0  0
  2  5  1  0  0  0  0
  5  6  1  0  0  0  0
  5 10  2  0  0  0  0
  6  7  2  0  0  0  0
  6 25  1  0  0  0  0
  7  8  1  0  0  0  0
  7 26  1  0  0  0  0
  8  9  2  0  0  0  0
  8 27  1  0  0  0  0
  9 10  1  0  0  0  0
  9 11  1  0  0  0  0
 10 28  1  0  0  0  0
 11 12  1  0  0  0  0
 11 23  1  0  0  0  0
 12 13  1  0  0  0  0
 12 29  1  0  0  0  0
 12 30  1  0  0  0  0
 13 14  1  0  0  0  0
 13 15  1  0  0  0  0
 13 20  1  0  0  0  0
 15 16  1  0  0  0  0
 16 17  1  0  0  0  0
 16 18  1  0  0  0  0
 16 21  1  0  0  0  0
 18 19  1  0  0  0  0
 18 31  1  0  0  0  0
 18 32  1  0  0  0  0
 19 20  1  0  0  0  0
 19 23  1  0  0  0  0
 19 33  1  0  0  0  0
 20 21  1  0  0  0  0
 20 34  1  0  0  0  0
 21 22  1  0  0  0  0
 21 35  1  0  0  0  0
 23 24  2  0  0  0  0
M  END
$$$$
