
  --CCDC--092525    3D                              

 75 79  0  0  0  0  0  0  0  0999 V2000
   -1.6897    1.8096   -0.4825 H      0
   -0.7597    2.3225   -0.2605 C      0
   -0.1099    3.0436   -1.2375 C      0
   -0.5359    3.0566   -2.2353 H      0
    1.0578    3.7309   -1.0205 C      0
    1.6042    3.8021    0.3174 C      0
    0.9835    2.9396    1.2638 C      0
   -0.2072    2.2379    0.9713 C      0
   -0.6763    1.6255    1.7343 H      0
    1.5770    2.7621    2.4940 C      0
    1.1453    2.0581    3.1978 H      0
    2.7135    3.4579    2.8432 C      0
    3.3253    3.1810    4.0860 C      0
    2.9327    2.3917    4.7185 H      0
    4.3955    3.9014    4.4924 C      0
    4.8831    3.6772    5.4353 H      0
    4.8427    4.9387    3.7049 C      0
    5.6746    5.5349    4.0652 H      0
    4.2839    5.2681    2.4958 C      0
    3.2162    4.4515    1.9563 C      0
    2.6494    4.5842    0.7200 N      0
    3.3831    6.0633   -0.5694 Ir     0
    4.9231    5.5612   -0.3280 H      0
    3.7822    7.2019   -1.6800 H      0
    1.1281    6.8731   -0.7423 Cl     0
    3.4027    4.4606   -2.4361 P      0
    4.4420    5.5269   -3.4841 C      0
    3.8416    6.4226   -3.7065 H      0
    4.7531    4.8464   -4.8200 C      0
    3.8493    4.6609   -5.3965 H      0
    5.2534    3.8939   -4.6591 H      0
    5.4083    5.4723   -5.4222 H      0
    5.7724    6.0417   -2.9138 C      0
    6.3623    6.4797   -3.7162 H      0
    6.3757    5.2554   -2.4741 H      0
    5.6370    6.8165   -2.1659 H      0
    4.2215    2.8513   -2.2038 C      0
    4.0195    2.2554   -3.1073 H      0
    3.7237    2.0313   -1.0135 C      0
    2.6797    1.7547   -1.1361 H      0
    3.8269    2.5910   -0.0864 H      0
    4.2991    1.1128   -0.9180 H      0
    5.7404    2.9418   -2.0709 C      0
    6.1553    1.9815   -1.7716 H      0
    6.0236    3.6810   -1.3245 H      0
    6.1932    3.2159   -3.0206 H      0
    1.6110    4.2661   -2.3198 C      0
    1.1197    5.2078   -2.5828 H      0
    1.3126    3.5653   -3.1093 H      0
    3.7261    7.6933    1.2351 P      0
    2.2652    8.0757    2.2405 C      0
    1.6193    8.7390    1.6445 H      0
    2.6585    8.8207    3.5177 C      0
    1.7743    9.1075    4.0831 H      0
    3.2212    9.7227    3.2905 H      0
    3.2761    8.1906    4.1543 H      0
    1.4328    6.8619    2.6542 C      0
    1.2106    6.2236    1.8028 H      0
    0.4897    7.1779    3.0952 H      0
    1.9635    6.2688    3.3954 H      0
    4.9487    9.0133    1.4604 C      0
    5.1920    9.0802    2.5321 H      0
    4.3747   10.3616    1.0181 C      0
    3.4117   10.5527    1.4855 H      0
    5.0484   11.1721    1.2882 H      0
    4.2350   10.3876   -0.0606 H      0
    6.2486    8.7930    0.6799 C      0
    6.8852    8.0425    1.1414 H      0
    6.8191    9.7181    0.6315 H      0
    6.0356    8.4787   -0.3397 H      0
    4.9085    6.5296    1.9499 C      0
    5.3973    7.0361    2.7912 H      0
    5.7130    6.2935    1.2457 H      0
    2.8120    4.5690   -3.6995 H      0
    3.7418    8.4387    0.0506 H      0
  1  2  1
  2  3  4
  3  4  1
  3  5  4
  5  6  4
  6  7  4
  7  8  4
  2  8  4
  8  9  1
  7 10  4
 10 11  1
 10 12  4
 12 13  4
 13 14  1
 13 15  4
 15 16  1
 15 17  4
 17 18  1
 17 19  4
 19 20  4
 12 20  4
 20 21  4
  6 21  4
 21 22  1
 22 23  1
 22 24  1
 22 25  1
 22 26  1
 26 27  1
 27 28  1
 27 29  1
 29 30  1
 29 31  1
 29 32  1
 27 33  1
 33 34  1
 33 35  1
 33 36  1
 26 37  1
 37 38  1
 37 39  1
 39 40  1
 39 41  1
 39 42  1
 37 43  1
 43 44  1
 43 45  1
 43 46  1
 26 47  1
  5 47  1
 47 48  1
 47 49  1
 22 50  1
 50 51  1
 51 52  1
 51 53  1
 53 54  1
 53 55  1
 53 56  1
 51 57  1
 57 58  1
 57 59  1
 57 60  1
 50 61  1
 61 62  1
 61 63  1
 63 64  1
 63 65  1
 63 66  1
 61 67  1
 67 68  1
 67 69  1
 67 70  1
 50 71  1
 19 71  1
 71 72  1
 71 73  1
 26 74  1
 50 75  1
M  END
$$$$
