
 OpenBabel09252514213D

 23 24  0  0  1  0  0  0  0  0999 V2000
   10.0263   -1.0926   -7.5739 H   0  0  0  0  0  0  0  0  0  0  0  0
    9.4325   -0.4871   -6.8987 C   0  0  0  0  0  3  0  0  0  0  0  0
    9.9547   -0.1558   -5.5824 C   0  0  0  0  0  3  0  0  0  0  0  0
   10.9427   -0.5081   -5.3065 H   0  0  0  0  0  0  0  0  0  0  0  0
    9.0491    0.2999   -4.5326 C   0  0  0  0  0  3  0  0  0  0  0  0
    9.4169    0.3077   -3.5106 H   0  0  0  0  0  0  0  0  0  0  0  0
    7.5901    0.3308   -4.7703 C   0  0  0  0  0  3  0  0  0  0  0  0
    6.5696   -0.2849   -3.4585 S   0  0  0  0  0  0  0  0  0  0  0  0
    6.3940   -1.7137   -3.6724 O   0  0  0  0  0  0  0  0  0  0  0  0
    7.1600    0.1616   -2.2037 O   0  0  0  0  0  0  0  0  0  0  0  0
    4.9498    0.4825   -3.5497 C   0  0  2  0  0  0  0  0  0  0  0  0
    4.2560    0.0257   -2.8344 H   0  0  0  0  0  0  0  0  0  0  0  0
    4.4223    0.4186   -4.9239 N   0  0  0  0  0  0  0  0  0  0  0  0
    3.8227   -0.2835   -5.3392 H   0  0  0  0  0  0  0  0  0  0  0  0
    4.0063    1.7141   -4.8997 C   0  0  0  0  0  0  0  0  0  0  0  0
    3.2146    2.2897   -5.6021 O   0  0  0  0  0  0  0  0  0  0  0  0
    4.8620    2.0079   -3.6508 C   0  0  0  0  0  0  0  0  0  0  0  0
    4.3141    2.4879   -2.8360 H   0  0  0  0  0  0  0  0  0  0  0  0
    5.7837    2.5535   -3.8626 H   0  0  0  0  0  0  0  0  0  0  0  0
    7.1444    0.2661   -6.1694 C   0  0  0  0  0  3  0  0  0  0  0  0
    6.2978    0.8539   -6.5004 H   0  0  0  0  0  0  0  0  0  0  0  0
    8.0332   -0.2487   -7.2004 C   0  0  0  0  0  3  0  0  0  0  0  0
    7.6388   -0.4919   -8.1798 H   0  0  0  0  0  0  0  0  0  0  0  0
  1  2  1  0  0  0  0
  2  3  1  0  0  0  0
  2 22  1  0  0  0  0
  3  4  1  0  0  0  0
  3  5  1  0  0  0  0
  5  6  1  0  0  0  0
  5  7  1  0  0  0  0
  7  8  1  0  0  0  0
  7 20  1  0  0  0  0
  8  9  2  0  0  0  0
  8 10  2  0  0  0  0
 11 13  1  0  0  0  0
 11 17  1  0  0  0  0
 11 12  1  1  0  0  0
 11  8  1  0  0  0  0
 13 14  1  0  0  0  0
 13 15  1  0  0  0  0
 15 16  2  0  0  0  0
 15 17  1  0  0  0  0
 17 18  1  0  0  0  0
 17 19  1  0  0  0  0
 20 21  1  0  0  0  0
 20 22  1  0  0  0  0
 22 23  1  0  0  0  0
M  END
$$$$
