
 OpenBabel09252518373D

 49 54  0  0  1  0  0  0  0  0999 V2000
    0.9379    0.0300    0.0724 H   0  0  0  0  0  0  0  0  0  0  0  0
    2.0079    0.0300    0.0724 C   0  0  0  0  0  3  0  0  0  0  0  0
    2.5146    1.4045    0.4779 C   0  0  0  0  0  3  0  0  0  0  0  0
    2.1579    1.6411    1.4586 H   0  0  0  0  0  0  0  0  0  0  0  0
    4.0346    1.4045    0.4779 C   0  0  0  0  0  3  0  0  0  0  0  0
    4.5928    2.4517    1.4757 C   0  0  0  0  0  3  0  0  0  0  0  0
    3.7312    2.5192    2.7261 C   0  0  0  0  0  3  0  0  0  0  0  0
    2.5146   -0.3061   -1.3207 C   0  0  0  0  0  3  0  0  0  0  0  0
    2.1579   -1.2737   -1.6061 H   0  0  0  0  0  0  0  0  0  0  0  0
    2.3482    3.0337    2.3613 C   0  0  0  0  0  0  0  0  0  0  0  0
    1.8968    2.3714    1.6525 H   0  0  0  0  0  0  0  0  0  0  0  0
    1.7418    3.0812    3.2416 H   0  0  0  0  0  0  0  0  0  0  0  0
    6.6986    2.9519    3.9611 P   0  0  0  0  0  0  0  0  0  0  0  0
    5.8771    4.5170    3.4871 C   0  0  0  0  0  0  0  0  0  0  0  0
    4.8408    4.2520    2.6967 F   0  0  0  0  0  0  0  0  0  0  0  0
    5.4519    5.1434    4.5806 F   0  0  0  0  0  0  0  0  0  0  0  0
    6.7416    5.2930    2.8395 F   0  0  0  0  0  0  0  0  0  0  0  0
    5.7653    1.6678    4.8714 C   0  0  0  0  0  0  0  0  0  0  0  0
    6.5982    0.9816    5.6487 F   0  0  0  0  0  0  0  0  0  0  0  0
    4.8329    2.2464    5.6229 F   0  0  0  0  0  0  0  0  0  0  0  0
    5.1863    0.8421    4.0043 F   0  0  0  0  0  0  0  0  0  0  0  0
    6.0008    1.9342    1.8099 Ir  0  0  0  0  0  0  0  0  0  0  0  0
    7.0409    2.6438    0.9844 C   0  0  0  0  0  0  0  0  0  0  0  0
    5.9912    2.7057    0.7868 H   0  0  0  0  0  0  0  0  0  0  0  0
    7.1049    2.6589   -0.0836 H   0  0  0  0  0  0  0  0  0  0  0  0
    7.8756    3.2560    1.8464 C   0  0  1  0  0  0  0  0  0  0  0  0
    7.1407    2.4948    2.0059 H   0  0  0  0  0  0  0  0  0  0  0  0
    7.4619    3.0092    3.2256 C   0  0  2  0  0  0  0  0  0  0  0  0
    6.9900    1.6807    2.6575 C   0  0  0  0  0  0  0  0  0  0  0  0
    6.2602    1.8577    1.8953 H   0  0  0  0  0  0  0  0  0  0  0  0
    7.8231    1.1559    2.2386 H   0  0  0  0  0  0  0  0  0  0  0  0
    6.5546    1.0932    3.4387 H   0  0  0  0  0  0  0  0  0  0  0  0
    6.3472    2.2177    3.2474 C   0  0  0  0  0  0  0  0  0  0  0  0
    5.9465    1.2265    3.2028 H   0  0  0  0  0  0  0  0  0  0  0  0
    5.8249    1.8691    4.1137 H   0  0  0  0  0  0  0  0  0  0  0  0
    6.0104    0.4280    1.5287 P   0  0  0  0  0  0  0  0  0  0  0  0
    5.8012    2.1317    0.8942 C   0  0  0  0  0  0  0  0  0  0  0  0
    4.5155    2.4685    0.9438 F   0  0  0  0  0  0  0  0  0  0  0  0
    6.5091    2.9733    1.6421 F   0  0  0  0  0  0  0  0  0  0  0  0
    6.2269    2.1914   -0.3644 F   0  0  0  0  0  0  0  0  0  0  0  0
    5.5129    0.0223    3.2424 C   0  0  0  0  0  0  0  0  0  0  0  0
    4.5767   -0.9222    3.2205 F   0  0  0  0  0  0  0  0  0  0  0  0
    6.5703   -0.4173    3.9187 F   0  0  0  0  0  0  0  0  0  0  0  0
    5.0300    1.1115    3.8335 F   0  0  0  0  0  0  0  0  0  0  0  0
    4.5926    0.0690    1.0321 C   0  0  0  0  0  0  0  0  0  0  0  0
    3.9789   -0.3419    1.8064 H   0  0  0  0  0  0  0  0  0  0  0  0
    4.6366   -0.6726    0.2621 H   0  0  0  0  0  0  0  0  0  0  0  0
    7.0869    3.5183    5.1581 H   0  0  0  0  0  0  0  0  0  0  0  0
    6.5433   -0.5508    0.7148 H   0  0  0  0  0  0  0  0  0  0  0  0
  1  2  1  0  0  0  0
  2  3  1  0  0  0  0
  2  8  1  0  0  0  0
  3  4  1  0  0  0  0
  3  5  1  0  0  0  0
  5  6  1  0  0  0  0
  5 45  1  0  0  0  0
  6  7  1  0  0  0  0
  6 22  1  0  0  0  0
  7  8  1  0  0  0  0
  7 10  1  0  0  0  0
  8  9  1  0  0  0  0
 10 11  1  0  0  0  0
 10 12  1  0  0  0  0
 10 13  1  0  0  0  0
 13 14  1  0  0  0  0
 13 18  1  0  0  0  0
 13 22  1  0  0  0  0
 13 48  1  0  0  0  0
 14 15  1  0  0  0  0
 14 16  1  0  0  0  0
 14 17  1  0  0  0  0
 18 19  1  0  0  0  0
 18 20  1  0  0  0  0
 18 21  1  0  0  0  0
 22 23  1  0  0  0  0
 22 26  1  0  0  0  0
 22 28  1  0  0  0  0
 22 33  1  0  0  0  0
 22 36  1  0  0  0  0
 23 24  1  0  0  0  0
 23 25  1  0  0  0  0
 23 26  2  0  0  0  0
 26 27  1  1  0  0  0
 26 28  1  0  0  0  0
 28 29  1  1  0  0  0
 28 33  2  0  0  0  0
 29 30  1  0  0  0  0
 29 31  1  0  0  0  0
 29 32  1  0  0  0  0
 33 34  1  0  0  0  0
 33 35  1  0  0  0  0
 36 37  1  0  0  0  0
 36 41  1  0  0  0  0
 36 45  1  0  0  0  0
 36 49  1  0  0  0  0
 37 38  1  0  0  0  0
 37 39  1  0  0  0  0
 37 40  1  0  0  0  0
 41 42  1  0  0  0  0
 41 43  1  0  0  0  0
 41 44  1  0  0  0  0
 45 46  1  0  0  0  0
 45 47  1  0  0  0  0
M  END
$$$$
