
  --CCDC--092525    3D                              

 64 65  0  0  0  0  0  0  0  0999 V2000
    0.3121    0.7879   -0.9859 H      0
    0.8619    1.1798   -0.1315 C      0
    1.1837    0.3548    0.5024 H      0
   -0.0880    2.0505    0.6782 C      0
   -1.2708    2.4057    0.2149 N      0
   -1.8497    3.2510    1.0841 N      0
   -3.0915    3.8233    0.9368 O      0
   -3.2390    3.3160   -0.4120 C      0
   -4.0288    3.7655   -1.0107 H      0
   -3.5201    2.2875   -0.5042 H      0
   -2.3591    3.3896   -1.0354 H      0
   -4.3897    4.4216    0.7828 C      0
   -4.4650    5.1846    0.0204 H      0
   -4.8057    4.9140    1.6598 H      0
   -5.1420    3.7137    0.4653 H      0
   -3.0394    4.3534    2.2792 C      0
   -3.8323    4.0464    2.9355 H      0
   -3.1179    5.4234    2.3302 H      0
   -2.1588    4.1406    2.8609 H      0
   -2.3489    5.1847    0.3076 P      0
   -0.9375    5.8209    1.2641 C      0
   -0.0123    5.2912    1.0336 H      0
   -1.0957    5.8282    2.3420 H      0
   -0.7674    6.8563    0.9717 H      0
   -2.6323    5.6094   -1.4398 C      0
   -3.6774    5.5653   -1.7266 H      0
   -2.0677    4.9717   -2.1086 H      0
   -2.2861    6.6226   -1.6189 H      0
   -2.9910    6.8682    0.6336 C      0
   -4.0315    6.9991    0.3500 H      0
   -2.4185    7.5851    0.0496 H      0
   -2.8849    7.1764    1.6708 H      0
   -3.7929    2.4215    1.5673 P      0
   -5.3428    2.5879    2.5338 C      0
   -5.8742    1.6394    2.4906 H      0
   -5.1497    2.7739    3.5889 H      0
   -6.0334    3.3468    2.1713 H      0
   -3.1461    0.7832    1.0817 C      0
   -3.2050    0.5611    0.0218 H      0
   -3.7489    0.0299    1.5773 H      0
   -2.1276    0.6081    1.4035 H      0
   -3.1014    1.7956    3.1325 C      0
   -3.6063    0.8688    3.3941 H      0
   -3.2427    2.4821    3.9624 H      0
   -2.0409    1.5768    3.0593 H      0
   -1.0131    3.4321    2.1175 N      0
    0.0767    2.7237    1.9222 C      0
    1.2516    2.7981    2.8690 C      0
    1.7042    1.8105    2.9437 H      0
    0.8922    3.1077    3.8493 H      0
    2.3076    3.7852    2.4020 C      0
    3.2251    3.5617    2.9444 H      0
    1.9619    4.7828    2.6690 H      0
    2.6455    3.8028    0.9303 C      0
    3.4532    4.5179    0.7815 H      0
    1.7615    4.1358    0.3885 H      0
    3.0897    2.4554    0.3280 C      0
    3.2226    1.7424    1.1403 H      0
    4.0393    2.6036   -0.1840 H      0
    2.1033    1.8793   -0.6550 C      0
    1.7645    2.7006   -1.2848 H      0
    2.6447    1.1555   -1.2624 H      0
   -1.1819    4.7655   -0.3426 H      0
   -4.8102    1.9097    0.7512 H      0
  1  2  1
  2  3  1
  2  4  1
  4  5  2
  5  6  1
  6  7  1
  7  8  1
  8  9  1
  8 10  1
  8 11  1
  7 12  1
 12 13  1
 12 14  1
 12 15  1
  7 16  1
 16 17  1
 16 18  1
 16 19  1
  7 20  1
 20 21  1
 21 22  1
 21 23  1
 21 24  1
 20 25  1
 25 26  1
 25 27  1
 25 28  1
 20 29  1
 29 30  1
 29 31  1
 29 32  1
  7 33  1
 33 34  1
 34 35  1
 34 36  1
 34 37  1
 33 38  1
 38 39  1
 38 40  1
 38 41  1
 33 42  1
 42 43  1
 42 44  1
 42 45  1
  6 46  1
 46 47  2
  4 47  1
 47 48  1
 48 49  1
 48 50  1
 48 51  1
 51 52  1
 51 53  1
 51 54  1
 54 55  1
 54 56  1
 54 57  1
 57 58  1
 57 59  1
 57 60  1
  2 60  1
 60 61  1
 60 62  1
 20 63  1
 33 64  1
M  END
$$$$
