
     RDKit          3D

 64 65  0  0  0  0  0  0  0  0999 V2000
    3.5290    0.6708   -1.8357 C   0  0  0  0  0  0  0  0  0  0  0  0
    2.3630    0.5200   -0.9375 C   0  0  0  0  0  0  0  0  0  0  0  0
    1.1781    0.3706   -1.5098 N   0  0  0  0  0  0  0  0  0  0  0  0
    0.2241    0.2466   -0.5705 N   0  0  0  0  0  0  0  0  0  0  0  0
   -1.5969    0.0150   -0.6658 Pt  0  0  0  0  0  6  0  0  0  0  0  0
   -1.1319   -1.1338   -2.1154 C   0  0  0  0  0  0  0  0  0  0  0  0
   -1.4617    1.4610   -1.9417 C   0  0  0  0  0  0  0  0  0  0  0  0
   -3.3227   -0.1752   -1.3279 C   0  0  0  0  0  0  0  0  0  0  0  0
   -1.6552   -1.6435    0.2915 P   0  0  0  0  0  5  0  0  0  0  0  0
   -1.1244   -1.5875    1.9466 C   0  0  0  0  0  0  0  0  0  0  0  0
   -3.4234   -1.9500    0.6704 C   0  0  0  0  0  0  0  0  0  0  0  0
   -1.5455   -3.1340   -0.6457 C   0  0  0  0  0  0  0  0  0  0  0  0
   -1.9608    1.2661    0.6746 P   0  0  0  0  0  5  0  0  0  0  0  0
   -2.1928    1.0414    2.3367 C   0  0  0  0  0  0  0  0  0  0  0  0
   -3.7086    1.8422    0.3949 C   0  0  0  0  0  0  0  0  0  0  0  0
   -1.3786    2.9023    0.1187 C   0  0  0  0  0  0  0  0  0  0  0  0
    0.8471    0.3229    0.5852 N   0  0  0  0  0  0  0  0  0  0  0  0
    2.1570    0.4901    0.4260 C   0  0  0  0  0  0  0  0  0  0  0  0
    3.0737    0.6037    1.5993 C   0  0  0  0  0  0  0  0  0  0  0  0
    4.0040   -0.5875    1.6257 C   0  0  0  0  0  0  0  0  0  0  0  0
    5.3574   -0.3176    1.0531 C   0  0  0  0  0  0  0  0  0  0  0  0
    5.3352    0.4760   -0.2231 C   0  0  0  0  0  0  0  0  0  0  0  0
    4.6149   -0.2629   -1.3318 C   0  0  0  0  0  0  0  0  0  0  0  0
    3.2393    0.4583   -2.8708 H   0  0  0  0  0  0  0  0  0  0  0  0
    3.9557    1.6982   -1.7986 H   0  0  0  0  0  0  0  0  0  0  0  0
   -1.9561   -1.7810   -2.4131 H   0  0  0  0  0  0  0  0  0  0  0  0
   -0.8666   -0.5607   -3.0297 H   0  0  0  0  0  0  0  0  0  0  0  0
   -0.1689   -1.6810   -1.8850 H   0  0  0  0  0  0  0  0  0  0  0  0
   -0.6103    2.0975   -1.7401 H   0  0  0  0  0  0  0  0  0  0  0  0
   -2.4280    1.9183   -2.1232 H   0  0  0  0  0  0  0  0  0  0  0  0
   -1.2095    1.0419   -2.9700 H   0  0  0  0  0  0  0  0  0  0  0  0
   -4.0661   -0.1713   -0.5725 H   0  0  0  0  0  0  0  0  0  0  0  0
   -3.4531   -1.1540   -1.8816 H   0  0  0  0  0  0  0  0  0  0  0  0
   -3.6144    0.5562   -2.1129 H   0  0  0  0  0  0  0  0  0  0  0  0
   -0.3439   -1.8447    0.1407 H   0  0  0  0  0  0  0  0  0  0  0  0
   -0.3759   -0.8328    2.2680 H   0  0  0  0  0  0  0  0  0  0  0  0
   -0.6900   -2.5529    2.3830 H   0  0  0  0  0  0  0  0  0  0  0  0
   -1.9046   -1.4834    2.7719 H   0  0  0  0  0  0  0  0  0  0  0  0
   -3.9226   -2.1744   -0.2554 H   0  0  0  0  0  0  0  0  0  0  0  0
   -3.6970   -1.0751    1.1865 H   0  0  0  0  0  0  0  0  0  0  0  0
   -3.4590   -2.8940    1.2718 H   0  0  0  0  0  0  0  0  0  0  0  0
   -1.6789   -3.9736    0.1092 H   0  0  0  0  0  0  0  0  0  0  0  0
   -2.4853   -3.3244   -1.2697 H   0  0  0  0  0  0  0  0  0  0  0  0
   -0.8397   -3.4869   -1.3702 H   0  0  0  0  0  0  0  0  0  0  0  0
   -0.7726    1.3033    1.2135 H   0  0  0  0  0  0  0  0  0  0  0  0
   -2.5048    2.1095    2.7280 H   0  0  0  0  0  0  0  0  0  0  0  0
   -3.1531    0.5213    2.5672 H   0  0  0  0  0  0  0  0  0  0  0  0
   -1.6503    0.7728    3.2554 H   0  0  0  0  0  0  0  0  0  0  0  0
   -4.3795    1.1531    0.8885 H   0  0  0  0  0  0  0  0  0  0  0  0
   -3.9096    2.7976    0.9735 H   0  0  0  0  0  0  0  0  0  0  0  0
   -3.7471    1.9246   -0.6598 H   0  0  0  0  0  0  0  0  0  0  0  0
   -0.3583    3.1595   -0.0835 H   0  0  0  0  0  0  0  0  0  0  0  0
   -1.8975    3.2947   -0.7803 H   0  0  0  0  0  0  0  0  0  0  0  0
   -1.7140    3.6417    0.9165 H   0  0  0  0  0  0  0  0  0  0  0  0
    2.4373    0.6448    2.5154 H   0  0  0  0  0  0  0  0  0  0  0  0
    3.6452    1.5467    1.4759 H   0  0  0  0  0  0  0  0  0  0  0  0
    3.5459   -1.4763    1.1216 H   0  0  0  0  0  0  0  0  0  0  0  0
    4.1328   -0.8760    2.6956 H   0  0  0  0  0  0  0  0  0  0  0  0
    6.0499    0.1844    1.7565 H   0  0  0  0  0  0  0  0  0  0  0  0
    5.8013   -1.3129    0.7950 H   0  0  0  0  0  0  0  0  0  0  0  0
    4.9760    1.5128   -0.0811 H   0  0  0  0  0  0  0  0  0  0  0  0
    6.4063    0.5831   -0.5360 H   0  0  0  0  0  0  0  0  0  0  0  0
    5.2836   -0.4791   -2.2080 H   0  0  0  0  0  0  0  0  0  0  0  0
    4.2024   -1.2225   -1.0104 H   0  0  0  0  0  0  0  0  0  0  0  0
  1  2  1  0
  2  3  2  0
  3  4  1  0
  4  5  1  0
  5  6  1  0
  5  7  1  0
  5  8  1  0
  5  9  1  0
  9 10  1  0
  9 11  1  0
  9 12  1  0
  5 13  1  0
 13 14  1  0
 13 15  1  0
 13 16  1  0
  4 17  1  0
 17 18  2  0
 18 19  1  0
 19 20  1  0
 20 21  1  0
 21 22  1  0
 22 23  1  0
 23  1  1  0
 18  2  1  0
  1 24  1  0
  1 25  1  0
  6 26  1  0
  6 27  1  0
  6 28  1  0
  7 29  1  0
  7 30  1  0
  7 31  1  0
  8 32  1  0
  8 33  1  0
  8 34  1  0
  9 35  1  0
 10 36  1  0
 10 37  1  0
 10 38  1  0
 11 39  1  0
 11 40  1  0
 11 41  1  0
 12 42  1  0
 12 43  1  0
 12 44  1  0
 13 45  1  0
 14 46  1  0
 14 47  1  0
 14 48  1  0
 15 49  1  0
 15 50  1  0
 15 51  1  0
 16 52  1  0
 16 53  1  0
 16 54  1  0
 19 55  1  0
 19 56  1  0
 20 57  1  0
 20 58  1  0
 21 59  1  0
 21 60  1  0
 22 61  1  0
 22 62  1  0
 23 63  1  0
 23 64  1  0
M  END
