
  --CCDC--092525    3D                              

114121  0  0  0  0  0  0  0  0999 V2000
    1.8037    3.3978   -3.4040 C      0
    2.0116    2.1818   -2.7389 O      0
    0.9286    1.2972   -2.9383 C      0
    1.2491   -0.0464   -2.3521 C      0
    1.4721    0.1377   -0.9763 O      0
    1.4396   -1.0536   -0.2329 C      0
    3.2344    2.0276   -0.3795 Eu     0
    1.3725    2.3016    1.5007 N      0
    0.4338    2.4168    2.4412 C      0
   -0.7690    2.5643    3.6463 S      0
    2.9985    4.6396    0.0765 N      0
    1.8875    5.1340    0.8257 C      0
    0.7496    5.6678    0.1864 C      0
   -0.3272    6.0624    0.9781 C      0
   -0.2733    5.9907    2.3571 C      0
    0.8804    5.5419    2.9731 C      0
    1.9886    5.1389    2.2293 C      0
    3.2617    4.7419    2.9562 C      0
    3.0293    3.6032    3.9488 C      0
    3.8133    5.9496    3.7107 C      0
    0.6319    5.8573   -1.3146 C      0
   -0.5395    5.0589   -1.8869 C      0
    0.4218    7.3269   -1.6739 C      0
    4.0473    5.5070   -0.3554 C      0
    5.1521    4.9815   -1.0176 C      0
    5.2390    3.5672   -1.2287 N      0
    6.3833    2.9449   -1.8230 C      0
    6.2653    2.4280   -3.1261 C      0
    7.2823    1.6087   -3.6156 C      0
    8.4258    1.3818   -2.8735 C      0
    8.5997    2.0348   -1.6670 C      0
    7.6157    2.8681   -1.1327 C      0
    7.9846    3.6765    0.1067 C      0
    8.2685    2.8229    1.3385 C      0
    9.2272    4.5223   -0.1684 C      0
    5.0819    2.8042   -3.9971 C      0
    4.2913    1.6129   -4.5366 C      0
    5.5478    3.6527   -5.1800 C      0
    6.0722    6.0810   -1.3576 C      0
    7.2763    6.2656   -2.0047 C      0
    7.8374    7.5359   -2.1025 C      0
    7.2362    8.6438   -1.5748 C      0
    5.9996    8.5184   -0.9038 C      0
    5.2678    9.5708   -0.3092 C      0
    4.0846    9.3048    0.3204 C      0
    3.5573    8.0197    0.3957 C      0
    4.2164    6.9583   -0.1873 C      0
    5.4462    7.2248   -0.8200 C      0
    4.5942    1.0534    1.6765 O      0
    3.8755    0.5023    2.7487 C      0
    5.6840    0.2328    1.2990 C      0
    5.2687   -0.6965    0.1943 C      0
    4.9596    0.0940   -0.9337 O      0
    4.8286   -0.6444   -2.1215 C      0
    2.3426    4.2021   -2.9063 H      0
    0.7466    3.6537   -3.4245 H      0
    2.1599    3.3327   -4.4312 H      0
    0.7107    1.1984   -4.0091 H      0
    0.0234    1.6995   -2.4693 H      0
    0.4192   -0.7464   -2.5147 H      0
    2.1328   -0.4805   -2.8331 H      0
    1.3949   -0.8450    0.8348 H      0
    2.3275   -1.6537   -0.4229 H      0
    0.5666   -1.6486   -0.4973 H      0
   -1.2293    6.4373    0.5058 H      0
   -1.1270    6.3021    2.9515 H      0
    0.9192    5.5046    4.0565 H      0
    4.0085    4.4143    2.2175 H      0
    2.7798    2.6792    3.4316 H      0
    3.9243    3.4260    4.5429 H      0
    2.2153    3.8428    4.6299 H      0
    3.1050    6.2847    4.4658 H      0
    3.9981    6.7781    3.0299 H      0
    4.7483    5.7003    4.2078 H      0
    1.5693    5.5186   -1.7736 H      0
   -0.4394    4.0015   -1.6526 H      0
   -0.5832    5.1638   -2.9696 H      0
   -1.4849    5.4097   -1.4765 H      0
    0.3327    7.4483   -2.7512 H      0
    1.2576    7.9332   -1.3369 H      0
   -0.4859    7.7109   -1.2132 H      0
    7.1925    1.1472   -4.5934 H      0
    9.1970    0.7155   -3.2473 H      0
    9.5326    1.9002   -1.1295 H      0
    7.1666    4.3615    0.3606 H      0
    7.3429    2.4727    1.7863 H      0
    8.7919    3.4094    2.0896 H      0
    8.8857    1.9638    1.0840 H      0
    9.3197    4.7440   -1.2292 H      0
   10.1294    4.0045    0.1508 H      0
    9.1721    5.4671    0.3684 H      0
    4.4210    3.4169   -3.3754 H      0
    3.8019    1.0665   -3.7359 H      0
    3.5216    1.9516   -5.2266 H      0
    4.9437    0.9245   -5.0691 H      0
    4.6987    3.9878   -5.7722 H      0
    6.2086    3.0827   -5.8299 H      0
    6.0884    4.5328   -4.8376 H      0
    7.7914    5.4179   -2.4443 H      0
    8.7870    7.6545   -2.6144 H      0
    7.7046    9.6182   -1.6707 H      0
    5.6461   10.5870   -0.3524 H      0
    3.5390   10.1259    0.7750 H      0
    2.6195    7.8549    0.9153 H      0
    4.0216   -0.5735    2.7933 H      0
    4.2033    0.9264    3.6947 H      0
    2.8105    0.6937    2.6430 H      0
    6.5259    0.8306    0.9417 H      0
    6.0449   -0.3336    2.1652 H      0
    6.0823   -1.3937   -0.0411 H      0
    4.4074   -1.3032    0.4981 H      0
    3.7874   -0.9045   -2.3065 H      0
    5.4079   -1.5660   -2.0769 H      0
    5.1866   -0.0638   -2.9679 H      0
  1  2  1
  2  3  1
  3  4  1
  4  5  1
  5  6  1
  5  7  1
  2  7  1
  7  8  1
  8  9  4
  9 10  4
  7 11  1
 11 12  1
 12 13  4
 13 14  4
 14 15  4
 15 16  4
 16 17  4
 12 17  4
 17 18  1
 18 19  1
 18 20  1
 13 21  1
 21 22  1
 21 23  1
 11 24  1
 24 25  2
 25 26  1
  7 26  1
 26 27  1
 27 28  4
 28 29  4
 29 30  4
 30 31  4
 31 32  4
 27 32  4
 32 33  1
 33 34  1
 33 35  1
 28 36  1
 36 37  1
 36 38  1
 25 39  1
 39 40  4
 40 41  4
 41 42  4
 42 43  4
 43 44  4
 44 45  4
 45 46  4
 46 47  4
 24 47  1
 47 48  4
 39 48  4
 43 48  4
  7 49  1
 49 50  1
 49 51  1
 51 52  1
 52 53  1
  7 53  1
 53 54  1
  1 55  1
  1 56  1
  1 57  1
  3 58  1
  3 59  1
  4 60  1
  4 61  1
  6 62  1
  6 63  1
  6 64  1
 14 65  1
 15 66  1
 16 67  1
 18 68  1
 19 69  1
 19 70  1
 19 71  1
 20 72  1
 20 73  1
 20 74  1
 21 75  1
 22 76  1
 22 77  1
 22 78  1
 23 79  1
 23 80  1
 23 81  1
 29 82  1
 30 83  1
 31 84  1
 33 85  1
 34 86  1
 34 87  1
 34 88  1
 35 89  1
 35 90  1
 35 91  1
 36 92  1
 37 93  1
 37 94  1
 37 95  1
 38 96  1
 38 97  1
 38 98  1
 40 99  1
 41100  1
 42101  1
 44102  1
 45103  1
 46104  1
 50105  1
 50106  1
 50107  1
 51108  1
 51109  1
 52110  1
 52111  1
 54112  1
 54113  1
 54114  1
M  END
$$$$
