
  --CCDC--092525    3D                              

114121  0  0  0  0  0  0  0  0999 V2000
    0.5743   -0.1570   -0.3759 H      0
    0.9702    0.8514   -0.3213 C      0
    1.1009    1.6087   -1.4670 C      0
    0.8167    1.1649   -2.4146 H      0
    1.5972    2.9117   -1.4315 C      0
    1.6855    3.6664   -2.7498 C      0
    2.0183    4.6965   -2.5499 H      0
    2.6628    2.9970   -3.7158 C      0
    2.6515    3.4969   -4.6818 H      0
    2.3967    1.9537   -3.8750 H      0
    3.6789    3.0319   -3.3359 H      0
    0.3241    3.7126   -3.4441 C      0
    0.2006    2.8580   -4.1054 H      0
    0.2269    4.6150   -4.0443 H      0
   -0.4864    3.6944   -2.7201 H      0
    1.9779    3.4438   -0.1791 C      0
    2.5749    4.7415   -0.1129 N      0
    3.9602    4.9125   -0.4278 C      0
    4.5281    6.1803   -0.3864 C      0
    5.9212    6.1150   -0.8480 C      0
    6.9696    6.9752   -1.0915 C      0
    6.8521    8.0378   -0.9043 H      0
    8.1709    6.4886   -1.5963 C      0
    8.9758    7.1867   -1.8001 H      0
    8.3692    5.1601   -1.8514 C      0
    9.3207    4.8206   -2.2489 H      0
    7.3346    4.2295   -1.5991 C      0
    7.3968    2.8307   -1.7913 C      0
    8.3066    2.3747   -2.1685 H      0
    6.3139    2.0511   -1.4952 C      0
    6.3898    0.9776   -1.6281 H      0
    5.1174    2.5854   -1.0285 C      0
    4.2821    1.9286   -0.8103 H      0
    4.9894    3.9443   -0.8438 C      0
    6.1189    4.7454   -1.1082 C      0
    3.7386    7.3021    0.0032 N      0
    4.2203    8.6385   -0.1264 C      0
    4.3496    9.2231   -1.4054 C      0
    4.3189    8.4596   -2.7271 C      0
    4.2147    7.3834   -2.5367 H      0
    5.6355    8.6677   -3.4748 C      0
    5.9646    7.7404   -3.9384 H      0
    6.4167    9.0012   -2.7954 H      0
    5.5255    9.4158   -4.2565 H      0
    3.1720    8.8757   -3.6438 C      0
    3.4185    8.6680   -4.6825 H      0
    2.2630    8.3296   -3.4010 H      0
    2.9681    9.9397   -3.5480 H      0
    4.5867   10.5962   -1.4577 C      0
    4.6222   11.0924   -2.4216 H      0
    4.7878   11.3439   -0.3107 C      0
    4.9371   12.4165   -0.3806 H      0
    4.8249   10.7143    0.9202 C      0
    5.0496   11.2982    1.8067 H      0
    4.5917    9.3444    1.0279 C      0
    4.7835    8.6187    2.3451 C      0
    3.9723    7.8832    2.4249 H      0
    4.7472    9.5592    3.5488 C      0
    3.8013   10.0933    3.5968 H      0
    5.5486   10.2913    3.4866 H      0
    4.8695    9.0030    4.4755 H      0
    6.1095    7.8589    2.3426 C      0
    6.9481    8.5415    2.2237 H      0
    6.1379    7.1422    1.5248 H      0
    6.2453    7.3145    3.2746 H      0
    1.2070    6.8779    0.7035 Eu     0
   -0.9239    8.0857    1.7424 N      0
   -1.9845    8.6893    2.2806 C      0
   -3.3442    9.4632    2.9706 S      0
    0.0939    7.2984   -1.6571 O      0
   -0.8016    6.3549   -2.1791 C      0
   -1.8296    6.6625   -2.0001 H      0
   -0.6504    5.3893   -1.7055 H      0
   -0.6609    6.2376   -3.2525 H      0
   -0.4307    8.6158   -1.6753 C      0
   -0.8455    8.8358   -2.6669 H      0
   -1.2731    8.6708   -0.9747 H      0
    0.5893    9.6741   -1.3019 C      0
    1.3163    9.8048   -2.1068 H      0
    0.0804   10.6426   -1.2185 H      0
    1.2682    9.4045   -0.0848 O      0
    1.1419   10.4229    0.8723 C      0
    0.1272   10.4560    1.2622 H      0
    1.8197   10.2561    1.7073 H      0
    1.3723   11.3925    0.4373 H      0
   -0.1025    4.8522    1.7832 O      0
   -1.1599    4.2832    1.0571 C      0
   -1.9479    5.0143    0.8897 H      0
   -1.5882    3.4372    1.5904 H      0
   -0.8113    3.9349    0.0875 H      0
   -0.4635    5.2187    3.1020 C      0
   -1.1869    6.0408    3.0369 H      0
   -0.9908    4.3924    3.5971 H      0
    0.7076    5.6720    3.9571 C      0
    0.3068    6.1926    4.8345 H      0
    1.2533    4.8190    4.3650 H      0
    1.6173    6.5378    3.3006 O      0
    2.3652    7.3487    4.1665 C      0
    1.9017    7.3758    5.1501 H      0
    2.4346    8.3692    3.7976 H      0
    3.3697    6.9542    4.2948 H      0
    1.8747    2.6711    0.9975 C      0
    2.3385    3.1739    2.3561 C      0
    2.0756    4.2392    2.4430 H      0
    3.8539    3.0332    2.4868 C      0
    4.3662    3.7530    1.8524 H      0
    4.1717    3.1994    3.5139 H      0
    4.1736    2.0354    2.1928 H      0
    1.6834    2.4096    3.5080 C      0
    2.0113    1.3739    3.5395 H      0
    0.5990    2.4239    3.4160 H      0
    1.9446    2.8649    4.4607 H      0
    1.3573    1.3775    0.8934 C      0
    1.2692    0.7467    1.7699 H      0
  1  2  1
  2  3  4
  3  4  1
  3  5  4
  5  6  1
  6  7  1
  6  8  1
  8  9  1
  8 10  1
  8 11  1
  6 12  1
 12 13  1
 12 14  1
 12 15  1
  5 16  4
 16 17  1
 17 18  1
 18 19  2
 19 20  1
 20 21  4
 21 22  1
 21 23  4
 23 24  1
 23 25  4
 25 26  1
 25 27  4
 27 28  4
 28 29  1
 28 30  4
 30 31  1
 30 32  4
 32 33  1
 32 34  4
 18 34  1
 34 35  4
 20 35  4
 27 35  4
 19 36  1
 36 37  1
 37 38  4
 38 39  1
 39 40  1
 39 41  1
 41 42  1
 41 43  1
 41 44  1
 39 45  1
 45 46  1
 45 47  1
 45 48  1
 38 49  4
 49 50  1
 49 51  4
 51 52  1
 51 53  4
 53 54  1
 53 55  4
 37 55  4
 55 56  1
 56 57  1
 56 58  1
 58 59  1
 58 60  1
 58 61  1
 56 62  1
 62 63  1
 62 64  1
 62 65  1
 36 66  1
 17 66  1
 66 67  1
 67 68  4
 68 69  4
 66 70  1
 70 71  1
 71 72  1
 71 73  1
 71 74  1
 70 75  1
 75 76  1
 75 77  1
 75 78  1
 78 79  1
 78 80  1
 78 81  1
 66 81  1
 81 82  1
 82 83  1
 82 84  1
 82 85  1
 66 86  1
 86 87  1
 87 88  1
 87 89  1
 87 90  1
 86 91  1
 91 92  1
 91 93  1
 91 94  1
 94 95  1
 94 96  1
 94 97  1
 66 97  1
 97 98  1
 98 99  1
 98100  1
 98101  1
 16102  4
102103  1
103104  1
103105  1
105106  1
105107  1
105108  1
103109  1
109110  1
109111  1
109112  1
102113  4
  2113  4
113114  1
M  END
$$$$
