
 OpenBabel09252515123D

 35 38  0  0  1  0  0  0  0  0999 V2000
    2.9409    0.1029    1.0344 H   0  0  0  0  0  0  0  0  0  0  0  0
    2.9132   -0.1335   -0.0237 C   0  0  0  0  0  3  0  0  0  0  0  0
    2.3342   -1.3991   -0.4586 C   0  0  0  0  0  3  0  0  0  0  0  0
    2.2149   -2.1770    0.2832 H   0  0  0  0  0  0  0  0  0  0  0  0
    1.7279   -1.4926   -1.7998 C   0  0  0  0  0  3  0  0  0  0  0  0
    0.3617   -1.8010   -1.8516 N   0  0  0  0  0  0  0  0  0  0  0  0
   -0.5362   -0.7143   -2.1618 C   0  0  0  0  0  0  0  0  0  0  0  0
   -0.4432    0.1231   -3.0440 O   0  0  0  0  0  0  0  0  0  0  0  0
   -1.5274   -0.6171   -1.0426 C   0  0  2  0  0  0  0  0  0  0  0  0
   -0.6321   -0.7764   -0.4054 H   0  0  0  0  0  0  0  0  0  0  0  0
   -1.9215    0.2167    0.1581 C   0  0  0  0  0  0  0  0  0  0  0  0
   -2.6533    0.9941   -0.0876 H   0  0  0  0  0  0  0  0  0  0  0  0
   -1.0766    0.7096    0.6622 H   0  0  0  0  0  0  0  0  0  0  0  0
   -2.5116   -0.9787    0.9805 C   0  0  2  0  0  0  0  0  0  0  0  0
   -3.1090   -0.3884    2.6902 Br  0  0  0  0  0  0  0  0  0  0  0  0
   -1.4961   -2.0779    1.0630 O   0  0  0  0  0  0  0  0  0  0  0  0
   -1.5260   -2.7997   -0.2235 C   0  0  2  0  0  0  0  0  0  0  0  0
   -2.1011   -4.4572    0.0798 Cl  0  0  0  0  0  0  0  0  0  0  0  0
   -0.1582   -2.9579   -1.0219 C   0  0  0  0  0  0  0  0  0  0  0  0
   -0.3074   -3.7319   -1.7890 H   0  0  0  0  0  0  0  0  0  0  0  0
    0.6143   -3.3372   -0.3491 H   0  0  0  0  0  0  0  0  0  0  0  0
   -2.4508   -1.8840   -0.9977 C   0  0  1  0  0  0  0  0  0  0  0  0
   -2.7812   -2.2482   -1.9734 H   0  0  0  0  0  0  0  0  0  0  0  0
   -3.5465   -1.4371   -0.0327 C   0  0  1  0  0  0  0  0  0  0  0  0
   -4.0895   -0.5805   -0.4564 H   0  0  0  0  0  0  0  0  0  0  0  0
   -5.0536   -2.7600    0.5249 I   0  0  0  0  0  0  0  0  0  0  0  0
    2.2802   -0.5950   -2.8189 C   0  0  0  0  0  3  0  0  0  0  0  0
    2.0492   -0.7814   -3.8626 H   0  0  0  0  0  0  0  0  0  0  0  0
    2.9066    0.6671   -2.4199 C   0  0  0  0  0  3  0  0  0  0  0  0
    3.1405    1.7544   -3.4169 C   0  0  0  0  0  0  0  0  0  0  0  0
    4.4626    2.0522   -3.5210 F   0  0  0  0  0  0  0  0  0  0  0  0
    2.7168    1.4382   -4.6672 F   0  0  0  0  0  0  0  0  0  0  0  0
    2.5122    2.9072   -3.0665 F   0  0  0  0  0  0  0  0  0  0  0  0
    3.1854    0.9080   -1.0018 C   0  0  0  0  0  3  0  0  0  0  0  0
    3.3806    1.9192   -0.6583 H   0  0  0  0  0  0  0  0  0  0  0  0
  1  2  1  0  0  0  0
  2  3  1  0  0  0  0
  2 34  1  0  0  0  0
  3  4  1  0  0  0  0
  3  5  1  0  0  0  0
  5 27  1  0  0  0  0
  5  6  1  0  0  0  0
  6  7  1  0  0  0  0
  6 19  1  0  0  0  0
  7  9  1  0  0  0  0
  7  8  2  0  0  0  0
  9 11  1  0  0  0  0
  9 22  1  0  0  0  0
  9 10  1  6  0  0  0
 11 14  1  0  0  0  0
 11 12  1  0  0  0  0
 11 13  1  0  0  0  0
 14 16  1  0  0  0  0
 14 24  1  0  0  0  0
 14 15  1  1  0  0  0
 16 17  1  0  0  0  0
 17 19  1  0  0  0  0
 17 22  1  0  0  0  0
 17 18  1  1  0  0  0
 19 20  1  0  0  0  0
 19 21  1  0  0  0  0
 22 24  1  0  0  0  0
 22 23  1  6  0  0  0
 24 26  1  0  0  0  0
 24 25  1  6  0  0  0
 27 28  1  0  0  0  0
 27 29  1  0  0  0  0
 29 30  1  0  0  0  0
 29 34  1  0  0  0  0
 30 31  1  0  0  0  0
 30 32  1  0  0  0  0
 30 33  1  0  0  0  0
 34 35  1  0  0  0  0
M  END
$$$$
