
 OpenBabel09252515253D

 53 52  0  0  0  0  0  0  0  0999 V2000
    0.9312    0.0271    0.0673 C   0  0  0  0  0  0  0  0  0  0  0  0
    0.2045   -0.8691    1.9170 Rh  0  0  0  0  0  0  0  0  0  0  0  0
    2.4989    0.0416    3.2596 I   0  0  0  0  0  0  0  0  0  0  0  0
   -1.1201    1.5251    2.5566 I   0  0  0  0  0  0  0  0  0  0  0  0
   -0.5221   -1.7653    3.7666 C   0  0  0  0  0  0  0  0  0  0  0  0
   -0.9282   -2.2661    4.8001 O   0  0  0  0  0  0  0  0  0  0  0  0
   -1.8285   -1.6761    0.7272 P   0  0  0  0  0  4  0  0  0  0  0  0
   -1.4219   -1.9945   -1.0284 C   0  0  0  0  0  0  0  0  0  0  0  0
   -0.3326   -3.0514   -1.1125 C   0  0  0  0  0  0  0  0  0  0  0  0
   -2.4180   -3.2231    1.5071 C   0  0  0  0  0  0  0  0  0  0  0  0
   -2.7558   -2.9586    2.9653 C   0  0  0  0  0  0  0  0  0  0  0  0
   -3.1399   -0.4037    0.8285 C   0  0  0  0  0  0  0  0  0  0  0  0
   -3.4777   -0.1392    2.2867 C   0  0  0  0  0  0  0  0  0  0  0  0
    1.3783   -2.9907    1.3502 P   0  0  0  0  0  4  0  0  0  0  0  0
    0.7335   -3.6400   -0.2346 C   0  0  0  0  0  0  0  0  0  0  0  0
    0.9723   -2.6192   -1.3351 C   0  0  0  0  0  0  0  0  0  0  0  0
    3.1735   -2.6715    1.1933 C   0  0  0  0  0  0  0  0  0  0  0  0
    3.7091   -2.1322    2.5096 C   0  0  0  0  0  0  0  0  0  0  0  0
    1.0908   -4.2197    2.6752 C   0  0  0  0  0  0  0  0  0  0  0  0
    1.6264   -3.6804    3.9915 C   0  0  0  0  0  0  0  0  0  0  0  0
    0.5745    1.0333   -0.0056 H   0  0  0  0  0  0  0  0  0  0  0  0
    0.5746   -0.5392   -0.7675 H   0  0  0  0  0  0  0  0  0  0  0  0
    2.0012    0.0271    0.0673 H   0  0  0  0  0  0  0  0  0  0  0  0
   -2.2955   -2.3413   -1.5396 H   0  0  0  0  0  0  0  0  0  0  0  0
   -1.0772   -1.0900   -1.4844 H   0  0  0  0  0  0  0  0  0  0  0  0
   -0.6773   -3.9559   -0.6565 H   0  0  0  0  0  0  0  0  0  0  0  0
   -0.0948   -3.2376   -2.1390 H   0  0  0  0  0  0  0  0  0  0  0  0
    0.5410   -2.7046   -0.6012 H   0  0  0  0  0  0  0  0  0  0  0  0
   -3.2916   -3.5699    0.9959 H   0  0  0  0  0  0  0  0  0  0  0  0
   -1.6512   -3.9670    1.4479 H   0  0  0  0  0  0  0  0  0  0  0  0
   -3.5225   -2.2146    3.0246 H   0  0  0  0  0  0  0  0  0  0  0  0
   -3.1004   -3.8631    3.4214 H   0  0  0  0  0  0  0  0  0  0  0  0
   -1.8821   -2.6118    3.4766 H   0  0  0  0  0  0  0  0  0  0  0  0
   -2.7953    0.5008    0.3725 H   0  0  0  0  0  0  0  0  0  0  0  0
   -4.0136   -0.7505    0.3173 H   0  0  0  0  0  0  0  0  0  0  0  0
   -2.6040    0.2075    2.7980 H   0  0  0  0  0  0  0  0  0  0  0  0
   -4.2445    0.6047    2.3459 H   0  0  0  0  0  0  0  0  0  0  0  0
   -3.8224   -1.0438    2.7427 H   0  0  0  0  0  0  0  0  0  0  0  0
    1.2379   -4.5517   -0.4781 H   0  0  0  0  0  0  0  0  0  0  0  0
   -0.3161   -3.8266   -0.1429 H   0  0  0  0  0  0  0  0  0  0  0  0
    2.0219   -2.4326   -1.4269 H   0  0  0  0  0  0  0  0  0  0  0  0
    0.5953   -2.9989   -2.2617 H   0  0  0  0  0  0  0  0  0  0  0  0
    0.4679   -1.7075   -1.0916 H   0  0  0  0  0  0  0  0  0  0  0  0
    3.6779   -3.5832    0.9497 H   0  0  0  0  0  0  0  0  0  0  0  0
    3.3416   -1.9529    0.4186 H   0  0  0  0  0  0  0  0  0  0  0  0
    3.5410   -2.8508    3.2843 H   0  0  0  0  0  0  0  0  0  0  0  0
    4.7587   -1.9456    2.4179 H   0  0  0  0  0  0  0  0  0  0  0  0
    3.2047   -1.2205    2.7532 H   0  0  0  0  0  0  0  0  0  0  0  0
    0.0412   -4.4063    2.7669 H   0  0  0  0  0  0  0  0  0  0  0  0
    1.5952   -5.1314    2.4316 H   0  0  0  0  0  0  0  0  0  0  0  0
    1.1220   -2.7687    4.2350 H   0  0  0  0  0  0  0  0  0  0  0  0
    1.4583   -4.3990    4.7662 H   0  0  0  0  0  0  0  0  0  0  0  0
    2.6760   -3.4938    3.8998 H   0  0  0  0  0  0  0  0  0  0  0  0
  1  2  1  0  0  0  0
  1 21  1  0  0  0  0
  1 22  1  0  0  0  0
  1 23  1  0  0  0  0
  2  3  1  0  0  0  0
  2  4  1  0  0  0  0
  2  5  1  0  0  0  0
  2  7  1  0  0  0  0
  2 14  1  0  0  0  0
  5  6  3  0  0  0  0
  7  8  1  0  0  0  0
  7 10  1  0  0  0  0
  7 12  1  0  0  0  0
  8  9  1  0  0  0  0
  8 24  1  0  0  0  0
  8 25  1  0  0  0  0
  9 26  1  0  0  0  0
  9 27  1  0  0  0  0
  9 28  1  0  0  0  0
 10 11  1  0  0  0  0
 10 29  1  0  0  0  0
 10 30  1  0  0  0  0
 11 31  1  0  0  0  0
 11 32  1  0  0  0  0
 11 33  1  0  0  0  0
 12 13  1  0  0  0  0
 12 34  1  0  0  0  0
 12 35  1  0  0  0  0
 13 36  1  0  0  0  0
 13 37  1  0  0  0  0
 13 38  1  0  0  0  0
 14 15  1  0  0  0  0
 14 17  1  0  0  0  0
 14 19  1  0  0  0  0
 15 16  1  0  0  0  0
 15 39  1  0  0  0  0
 15 40  1  0  0  0  0
 16 41  1  0  0  0  0
 16 42  1  0  0  0  0
 16 43  1  0  0  0  0
 17 18  1  0  0  0  0
 17 44  1  0  0  0  0
 17 45  1  0  0  0  0
 18 46  1  0  0  0  0
 18 47  1  0  0  0  0
 18 48  1  0  0  0  0
 19 20  1  0  0  0  0
 19 49  1  0  0  0  0
 19 50  1  0  0  0  0
 20 51  1  0  0  0  0
 20 52  1  0  0  0  0
 20 53  1  0  0  0  0
M  END
$$$$
