
 OpenBabel09252515393D

 80 84  0  0  0  0  0  0  0  0999 V2000
    0.9177   -0.0458    0.0337 Cl  0  0  0  0  0  0  0  0  0  0  0  0
    3.3977   -0.0458    0.0337 Ru  0  0  0  0  0  0  0  0  0  0  0  0
    3.6778    0.6563   -1.0234 C   0  0  0  0  0  0  0  0  0  0  0  0
    4.0109   -0.0143   -2.2802 C   0  0  0  0  0  0  0  0  0  0  0  0
    4.3178    0.7025   -3.4386 C   0  0  0  0  0  0  0  0  0  0  0  0
    4.6295    0.0311   -4.5873 C   0  0  0  0  0  0  0  0  0  0  0  0
    4.6336   -1.3575   -4.6223 C   0  0  0  0  0  0  0  0  0  0  0  0
    4.3340   -2.0909   -3.4954 C   0  0  0  0  0  0  0  0  0  0  0  0
    4.0189   -1.4270   -2.3105 C   0  0  0  0  0  0  0  0  0  0  0  0
    3.6917   -2.1511   -1.0759 C   0  0  0  0  0  0  0  0  0  0  0  0
    2.3961   -2.8748   -1.4049 C   0  0  0  0  0  0  0  0  0  0  0  0
    3.3977   -1.4410    0.0337 N   0  0  0  0  0  0  0  0  0  0  0  0
    3.7226   -2.7423   -0.5679 C   0  0  0  0  0  0  0  0  0  0  0  0
    1.9757   -1.7533    0.2369 C   0  0  0  0  0  0  0  0  0  0  0  0
    4.6377   -0.0458    2.1815 Cl  0  0  0  0  0  0  0  0  0  0  0  0
    4.5077   -0.0458   -1.8889 C   0  0  0  0  0  3  0  0  0  0  0  0
    5.8118   -0.8721   -1.7689 N   0  0  0  0  0  0  0  0  0  0  0  0
    6.1078   -1.2551   -3.2434 C   0  0  0  0  0  0  0  0  0  0  0  0
    4.7165   -1.5360   -3.8487 C   0  0  0  0  0  0  0  0  0  0  0  0
    3.6994   -0.7670   -2.9872 N   0  0  0  0  0  0  0  0  0  0  0  0
    2.2419   -0.7274   -3.1743 C   0  0  0  0  0  0  0  0  0  0  0  0
    1.4989   -1.8897   -3.1211 C   0  0  0  0  0  0  0  0  0  0  0  0
    2.1960   -3.2163   -2.8671 C   0  0  0  0  0  0  0  0  0  0  0  0
    0.1861   -1.8617   -3.2889 C   0  0  0  0  0  0  0  0  0  0  0  0
   -0.4608   -0.7289   -3.5061 C   0  0  0  0  0  0  0  0  0  0  0  0
   -1.9700   -0.7483   -3.6856 C   0  0  0  0  0  0  0  0  0  0  0  0
    0.2191    0.4720   -3.5718 C   0  0  0  0  0  0  0  0  0  0  0  0
    1.5965    0.4786   -3.4065 C   0  0  0  0  0  0  0  0  0  0  0  0
    2.3811    1.7785   -3.4782 C   0  0  0  0  0  0  0  0  0  0  0  0
    6.5778   -1.2094   -0.5605 C   0  0  0  0  0  0  0  0  0  0  0  0
    7.8767   -0.7704   -0.3993 C   0  0  0  0  0  0  0  0  0  0  0  0
    8.5431    0.0281   -1.5077 C   0  0  0  0  0  0  0  0  0  0  0  0
    8.5483   -1.0371    0.7099 C   0  0  0  0  0  0  0  0  0  0  0  0
    8.0046   -1.7233    1.7011 C   0  0  0  0  0  0  0  0  0  0  0  0
    8.8148   -1.9977    2.9576 C   0  0  0  0  0  0  0  0  0  0  0  0
    6.7090   -2.1935    1.6081 C   0  0  0  0  0  0  0  0  0  0  0  0
    5.9781   -1.9374    0.4571 C   0  0  0  0  0  0  0  0  0  0  0  0
    4.5519   -2.4431    0.3139 C   0  0  0  0  0  0  0  0  0  0  0  0
    3.6647    1.7251   -0.9746 H   0  0  0  0  0  0  0  0  0  0  0  0
    4.3091    1.7724   -3.4268 H   0  0  0  0  0  0  0  0  0  0  0  0
    4.8735    0.5822   -5.4714 H   0  0  0  0  0  0  0  0  0  0  0  0
    4.8721   -1.8631   -5.5347 H   0  0  0  0  0  0  0  0  0  0  0  0
    4.3429   -3.1603   -3.5291 H   0  0  0  0  0  0  0  0  0  0  0  0
    4.5331   -2.7689   -0.8407 H   0  0  0  0  0  0  0  0  0  0  0  0
    2.5458   -3.5047   -2.2567 H   0  0  0  0  0  0  0  0  0  0  0  0
    2.0984   -3.4713   -0.5680 H   0  0  0  0  0  0  0  0  0  0  0  0
    1.6321   -2.1576   -1.6215 H   0  0  0  0  0  0  0  0  0  0  0  0
    4.0710   -1.7276    0.7443 H   0  0  0  0  0  0  0  0  0  0  0  0
    3.5044   -3.5227    0.1308 H   0  0  0  0  0  0  0  0  0  0  0  0
    3.1375   -2.8821   -1.4528 H   0  0  0  0  0  0  0  0  0  0  0  0
    4.7622   -2.7693   -0.8197 H   0  0  0  0  0  0  0  0  0  0  0  0
    1.8509   -2.8132    0.3147 H   0  0  0  0  0  0  0  0  0  0  0  0
    1.6331   -1.2868    1.1368 H   0  0  0  0  0  0  0  0  0  0  0  0
    1.4081   -1.3873   -0.5930 H   0  0  0  0  0  0  0  0  0  0  0  0
    6.7668   -2.0943   -3.3242 H   0  0  0  0  0  0  0  0  0  0  0  0
    6.5887   -0.4482   -3.7558 H   0  0  0  0  0  0  0  0  0  0  0  0
    4.5027   -2.5844   -3.8550 H   0  0  0  0  0  0  0  0  0  0  0  0
    4.6779   -1.1918   -4.8611 H   0  0  0  0  0  0  0  0  0  0  0  0
    1.8080   -3.6576   -1.9729 H   0  0  0  0  0  0  0  0  0  0  0  0
    2.0233   -3.8739   -3.6933 H   0  0  0  0  0  0  0  0  0  0  0  0
    3.2474   -3.0512   -2.7563 H   0  0  0  0  0  0  0  0  0  0  0  0
   -0.3650   -2.7780   -3.2478 H   0  0  0  0  0  0  0  0  0  0  0  0
   -2.2213   -1.3593   -4.5273 H   0  0  0  0  0  0  0  0  0  0  0  0
   -2.4288   -1.1476   -2.8053 H   0  0  0  0  0  0  0  0  0  0  0  0
   -2.3224    0.2485   -3.8506 H   0  0  0  0  0  0  0  0  0  0  0  0
   -0.3099    1.3852   -3.7480 H   0  0  0  0  0  0  0  0  0  0  0  0
    2.2413    2.2270   -4.4395 H   0  0  0  0  0  0  0  0  0  0  0  0
    2.0336    2.4472   -2.7186 H   0  0  0  0  0  0  0  0  0  0  0  0
    3.4209    1.5762   -3.3268 H   0  0  0  0  0  0  0  0  0  0  0  0
    8.8250    0.9904   -1.1342 H   0  0  0  0  0  0  0  0  0  0  0  0
    9.4144   -0.4918   -1.8475 H   0  0  0  0  0  0  0  0  0  0  0  0
    7.8591    0.1479   -2.3218 H   0  0  0  0  0  0  0  0  0  0  0  0
    9.5555   -0.6891    0.8067 H   0  0  0  0  0  0  0  0  0  0  0  0
    9.6912   -2.5558    2.7021 H   0  0  0  0  0  0  0  0  0  0  0  0
    9.1013   -1.0699    3.4070 H   0  0  0  0  0  0  0  0  0  0  0  0
    8.2223   -2.5606    3.6482 H   0  0  0  0  0  0  0  0  0  0  0  0
    6.2747   -2.7482    2.4134 H   0  0  0  0  0  0  0  0  0  0  0  0
    4.5433   -3.5108    0.3847 H   0  0  0  0  0  0  0  0  0  0  0  0
    3.9467   -2.0291    1.0931 H   0  0  0  0  0  0  0  0  0  0  0  0
    4.1617   -2.1456   -0.6370 H   0  0  0  0  0  0  0  0  0  0  0  0
  1  2  1  0  0  0  0
  2  3  2  0  0  0  0
  2 12  1  0  0  0  0
  2 15  1  0  0  0  0
  2 16  1  0  0  0  0
  3  4  1  0  0  0  0
  3 39  1  0  0  0  0
  4  5  1  0  0  0  0
  4  9  2  0  0  0  0
  5  6  2  0  0  0  0
  5 40  1  0  0  0  0
  6  7  1  0  0  0  0
  6 41  1  0  0  0  0
  7  8  2  0  0  0  0
  7 42  1  0  0  0  0
  8  9  1  0  0  0  0
  8 43  1  0  0  0  0
  9 10  1  0  0  0  0
 10 11  1  0  0  0  0
 10 12  1  0  0  0  0
 10 44  1  0  0  0  0
 11 45  1  0  0  0  0
 11 46  1  0  0  0  0
 11 47  1  0  0  0  0
 12 13  1  0  0  0  0
 12 14  1  0  0  0  0
 12 48  1  0  0  0  0
 13 49  1  0  0  0  0
 13 50  1  0  0  0  0
 13 51  1  0  0  0  0
 14 52  1  0  0  0  0
 14 53  1  0  0  0  0
 14 54  1  0  0  0  0
 16 17  1  0  0  0  0
 16 20  1  0  0  0  0
 17 18  1  0  0  0  0
 17 30  1  0  0  0  0
 18 19  1  0  0  0  0
 18 55  1  0  0  0  0
 18 56  1  0  0  0  0
 19 20  1  0  0  0  0
 19 57  1  0  0  0  0
 19 58  1  0  0  0  0
 20 21  1  0  0  0  0
 21 22  1  0  0  0  0
 21 28  2  0  0  0  0
 22 23  1  0  0  0  0
 22 24  2  0  0  0  0
 23 59  1  0  0  0  0
 23 60  1  0  0  0  0
 23 61  1  0  0  0  0
 24 25  1  0  0  0  0
 24 62  1  0  0  0  0
 25 26  1  0  0  0  0
 25 27  2  0  0  0  0
 26 63  1  0  0  0  0
 26 64  1  0  0  0  0
 26 65  1  0  0  0  0
 27 28  1  0  0  0  0
 27 66  1  0  0  0  0
 28 29  1  0  0  0  0
 29 67  1  0  0  0  0
 29 68  1  0  0  0  0
 29 69  1  0  0  0  0
 30 31  1  0  0  0  0
 30 37  2  0  0  0  0
 31 32  1  0  0  0  0
 31 33  2  0  0  0  0
 32 70  1  0  0  0  0
 32 71  1  0  0  0  0
 32 72  1  0  0  0  0
 33 34  1  0  0  0  0
 33 73  1  0  0  0  0
 34 35  1  0  0  0  0
 34 36  2  0  0  0  0
 35 74  1  0  0  0  0
 35 75  1  0  0  0  0
 35 76  1  0  0  0  0
 36 37  1  0  0  0  0
 36 77  1  0  0  0  0
 37 38  1  0  0  0  0
 38 78  1  0  0  0  0
 38 79  1  0  0  0  0
 38 80  1  0  0  0  0
M  END
$$$$
