
     RDKit          3D

  0  0  0  0  0  0  0  0  0  0999 V3000
M  V30 BEGIN CTAB
M  V30 COUNTS 43 45 0 0 0
M  V30 BEGIN ATOM
M  V30 1 C 5.293534 1.379689 0.692673 0
M  V30 2 C 5.277312 0.007798 0.554280 0
M  V30 3 C 4.115803 -0.680370 0.262214 0
M  V30 4 C 2.898595 -0.013885 0.093539 0
M  V30 5 C 1.707324 -0.828770 -0.211816 0 CFG=1
M  V30 6 C 1.969470 -2.291653 0.161679 0
M  V30 7 N 0.520478 -0.430980 0.518947 0
M  V30 8 Pt -0.462965 1.041592 -0.490858 0 CFG=1 VAL=4
M  V30 9 N -1.584698 2.480702 -1.460656 0
M  V30 10 C -1.486123 3.654319 -0.976401 0
M  V30 11 O -1.387912 4.816054 -0.559276 0
M  V30 12 C -2.094029 0.848956 0.977263 0
M  V30 13 C -2.618558 1.331523 2.122725 0
M  V30 14 C -3.812946 0.762685 2.468661 0
M  V30 15 C -4.397858 -0.209225 1.696690 0
M  V30 16 C -3.902157 -0.733040 0.525005 0
M  V30 17 C -2.664266 -0.172719 0.131169 0
M  V30 18 C -2.099521 -0.866154 -1.112029 0 CFG=1
M  V30 19 C -3.168189 -1.465157 -1.956550 0
M  V30 20 N -1.017679 -0.368905 -1.915716 0
M  V30 21 C 2.980151 1.348559 0.244648 0
M  V30 22 C 4.109664 2.070602 0.533400 0
M  V30 23 H 6.151179 1.993644 0.918393 0
M  V30 24 H 6.249986 -0.484752 0.692165 0
M  V30 25 H 4.264560 -1.738575 0.187327 0
M  V30 26 H 1.552177 -0.805992 -1.305297 0
M  V30 27 H 2.628273 -2.779488 -0.566216 0
M  V30 28 H 0.970261 -2.765371 0.233354 0
M  V30 29 H 2.404090 -2.328238 1.204399 0
M  V30 30 H -0.096919 -1.263493 0.586181 0
M  V30 31 H 0.768859 -0.077318 1.477472 0
M  V30 32 H -1.820702 2.026021 2.317890 0
M  V30 33 H -4.074100 1.255831 3.385584 0
M  V30 34 H -5.330682 -0.546693 2.116381 0
M  V30 35 H -4.440862 -1.484166 0.010878 0
M  V30 36 H -1.597820 -1.780413 -0.584583 0
M  V30 37 H -3.382788 -2.519327 -1.680102 0
M  V30 38 H -2.899084 -1.459295 -3.036052 0
M  V30 39 H -4.135631 -0.881075 -1.902346 0
M  V30 40 H -0.261046 -1.076811 -2.147293 0
M  V30 41 H -1.236417 0.005531 -2.870964 0
M  V30 42 H 2.056383 1.898914 0.121085 0
M  V30 43 H 4.054854 3.129443 0.626041 0
M  V30 END ATOM
M  V30 BEGIN BOND
M  V30 1 2 1 2
M  V30 2 1 2 3
M  V30 3 2 3 4
M  V30 4 1 4 5
M  V30 5 1 5 6
M  V30 6 1 5 7
M  V30 7 9 7 8
M  V30 8 1 8 9
M  V30 9 2 9 10
M  V30 10 2 10 11
M  V30 11 1 8 12
M  V30 12 2 12 13
M  V30 13 1 13 14
M  V30 14 2 14 15
M  V30 15 1 15 16
M  V30 16 2 16 17
M  V30 17 1 17 18
M  V30 18 1 18 19
M  V30 19 1 18 20
M  V30 20 1 4 21
M  V30 21 2 21 22
M  V30 22 1 22 1
M  V30 23 9 20 8
M  V30 24 1 17 12
M  V30 25 1 1 23
M  V30 26 1 2 24
M  V30 27 1 3 25
M  V30 28 1 5 26 CFG=3
M  V30 29 1 6 27
M  V30 30 1 6 28
M  V30 31 1 6 29
M  V30 32 1 7 30
M  V30 33 1 7 31
M  V30 34 1 13 32
M  V30 35 1 14 33
M  V30 36 1 15 34
M  V30 37 1 16 35
M  V30 38 1 18 36 CFG=1
M  V30 39 1 19 37
M  V30 40 1 19 38
M  V30 41 1 19 39
M  V30 42 1 20 40
M  V30 43 1 20 41
M  V30 44 1 21 42
M  V30 45 1 22 43
M  V30 END BOND
M  V30 END CTAB
M  END
