
 OpenBabel09252519563D

 32 35  0  0  0  0  0  0  0  0999 V2000
    0.9310    0.1123    0.0321 O   0  0  0  0  0  0  0  0  0  0  0  0
    2.1544    0.1524    0.0943 C   0  0  0  0  0  0  0  0  0  0  0  0
    2.7976    1.3143    0.3844 N   0  0  0  0  0  0  0  0  0  0  0  0
    4.1734    1.4692    0.2492 C   0  0  0  0  0  0  0  0  0  0  0  0
    4.7075    2.7543    0.3976 C   0  0  0  0  0  0  0  0  0  0  0  0
    6.0466    2.9810    0.1067 C   0  0  0  0  0  0  0  0  0  0  0  0
    6.8200    1.9379   -0.3887 C   0  0  0  0  0  0  0  0  0  0  0  0
    6.2715    0.6549   -0.5290 C   0  0  0  0  0  0  0  0  0  0  0  0
    4.9594    0.3677   -0.1262 C   0  0  0  0  0  0  0  0  0  0  0  0
    4.3581   -1.0139   -0.1009 C   0  0  0  0  0  0  0  0  0  0  0  0
    3.0040   -1.0726   -0.0639 C   0  0  0  0  0  0  0  0  0  0  0  0
    2.1691   -2.3204   -0.0976 C   0  0  0  0  0  0  0  0  0  0  0  0
    2.9060   -3.6355   -0.2754 C   0  0  0  0  0  0  0  0  0  0  0  0
    4.4001   -3.5585   -0.1683 C   0  0  0  0  0  0  0  0  0  0  0  0
    5.0961   -4.7868   -0.1682 C   0  0  0  0  0  0  0  0  0  0  0  0
    6.4738   -4.8276   -0.0095 C   0  0  0  0  0  0  0  0  0  0  0  0
    7.1601   -3.6432    0.1959 C   0  0  0  0  0  0  0  0  0  0  0  0
    6.4691   -2.4241    0.2099 C   0  0  0  0  0  0  0  0  0  0  0  0
    5.0868   -2.3347   -0.0390 C   0  0  0  0  0  0  0  0  0  0  0  0
    2.2019    2.1173    0.5307 H   0  0  0  0  0  0  0  0  0  0  0  0
    4.0831    3.5837    0.7179 H   0  0  0  0  0  0  0  0  0  0  0  0
    6.4723    3.9739    0.2241 H   0  0  0  0  0  0  0  0  0  0  0  0
    7.8538    2.1187   -0.6738 H   0  0  0  0  0  0  0  0  0  0  0  0
    6.8992   -0.1036   -0.9859 H   0  0  0  0  0  0  0  0  0  0  0  0
    1.5817   -2.3736    0.8292 H   0  0  0  0  0  0  0  0  0  0  0  0
    1.4358   -2.2425   -0.9121 H   0  0  0  0  0  0  0  0  0  0  0  0
    2.5394   -4.3307    0.4934 H   0  0  0  0  0  0  0  0  0  0  0  0
    2.6428   -4.0759   -1.2449 H   0  0  0  0  0  0  0  0  0  0  0  0
    4.5498   -5.7219   -0.2797 H   0  0  0  0  0  0  0  0  0  0  0  0
    7.0000   -5.7778   -0.0145 H   0  0  0  0  0  0  0  0  0  0  0  0
    8.2345   -3.6591    0.3603 H   0  0  0  0  0  0  0  0  0  0  0  0
    7.0592   -1.5497    0.4574 H   0  0  0  0  0  0  0  0  0  0  0  0
  1  2  2  0  0  0  0
  2  3  1  0  0  0  0
  2 11  1  0  0  0  0
  3  4  1  0  0  0  0
  3 20  1  0  0  0  0
  4  5  1  0  0  0  0
  4  9  2  0  0  0  0
  5  6  2  0  0  0  0
  5 21  1  0  0  0  0
  6  7  1  0  0  0  0
  6 22  1  0  0  0  0
  7  8  2  0  0  0  0
  7 23  1  0  0  0  0
  8  9  1  0  0  0  0
  8 24  1  0  0  0  0
  9 10  1  0  0  0  0
 10 11  2  0  0  0  0
 10 19  1  0  0  0  0
 11 12  1  0  0  0  0
 12 13  1  0  0  0  0
 12 25  1  0  0  0  0
 12 26  1  0  0  0  0
 13 14  1  0  0  0  0
 13 27  1  0  0  0  0
 13 28  1  0  0  0  0
 14 15  1  0  0  0  0
 14 19  2  0  0  0  0
 15 16  2  0  0  0  0
 15 29  1  0  0  0  0
 16 17  1  0  0  0  0
 16 30  1  0  0  0  0
 17 18  2  0  0  0  0
 17 31  1  0  0  0  0
 18 19  1  0  0  0  0
 18 32  1  0  0  0  0
M  END
$$$$
