
     RDKit          3D

 35 38  0  0  0  0  0  0  0  0999 V2000
   -4.1251   -0.4651    2.8539 F   0  0  0  0  0  0  0  0  0  0  0  0
   -4.6989   -0.1849    1.6498 C   0  0  0  0  0  0  0  0  0  0  0  0
   -5.7916   -0.9927    1.5624 F   0  0  0  0  0  0  0  0  0  0  0  0
   -5.1764    1.0855    1.7519 F   0  0  0  0  0  0  0  0  0  0  0  0
   -3.7411   -0.3457    0.4952 C   0  0  0  0  0  0  0  0  0  0  0  0
   -4.1972   -0.7781   -0.7538 C   0  0  0  0  0  0  0  0  0  0  0  0
   -3.3059   -0.9005   -1.8137 C   0  0  0  0  0  0  0  0  0  0  0  0
   -1.9551   -0.5828   -1.6379 C   0  0  0  0  0  0  0  0  0  0  0  0
   -1.4611   -0.1263   -0.4068 C   0  0  0  0  0  0  0  0  0  0  0  0
   -2.3777   -0.0217    0.6542 C   0  0  0  0  0  0  0  0  0  0  0  0
   -0.0589    0.1760   -0.2319 N   0  0  0  0  0  0  0  0  0  0  0  0
    0.4442    0.3391    1.1383 C   0  0  0  0  0  0  0  0  0  0  0  0
    1.9625    0.2620    1.3140 C   0  0  0  0  0  0  0  0  0  0  0  0
    2.3680    0.7930    2.9766 Cl  0  0  0  0  0  0  0  0  0  0  0  0
    2.4423   -1.0942    1.1509 O   0  0  0  0  0  0  0  0  0  0  0  0
    3.4832   -1.0116    0.1385 C   0  0  0  0  0  0  0  0  0  0  0  0
    4.6604   -2.5069    0.2546 Br  0  0  0  0  0  0  0  0  0  0  0  0
    2.7491   -0.8991   -1.1942 C   0  0  0  0  0  0  0  0  0  0  0  0
    2.2259    0.5510   -1.1135 C   0  0  0  0  0  0  0  0  0  0  0  0
    2.7462    1.0391    0.2563 C   0  0  0  0  0  0  0  0  0  0  0  0
    4.1124    0.3537    0.3867 C   0  0  0  0  0  0  0  0  0  0  0  0
    5.6049    1.0606   -0.9192 I   0  0  0  0  0  0  0  0  0  0  0  0
    0.7225    0.6023   -1.3073 C   0  0  0  0  0  0  0  0  0  0  0  0
    0.2925    0.9449   -2.4083 O   0  0  0  0  0  0  0  0  0  0  0  0
   -5.2472   -1.0242   -0.9054 H   0  0  0  0  0  0  0  0  0  0  0  0
   -3.6551   -1.2461   -2.7842 H   0  0  0  0  0  0  0  0  0  0  0  0
   -1.2982   -0.7252   -2.4927 H   0  0  0  0  0  0  0  0  0  0  0  0
   -2.0677    0.3396    1.6320 H   0  0  0  0  0  0  0  0  0  0  0  0
    0.0867    1.3205    1.4763 H   0  0  0  0  0  0  0  0  0  0  0  0
   -0.0015   -0.4485    1.7584 H   0  0  0  0  0  0  0  0  0  0  0  0
    3.4119   -1.0215   -2.0580 H   0  0  0  0  0  0  0  0  0  0  0  0
    1.9413   -1.6348   -1.2840 H   0  0  0  0  0  0  0  0  0  0  0  0
    2.6694    1.1534   -1.9161 H   0  0  0  0  0  0  0  0  0  0  0  0
    2.7231    2.1258    0.3725 H   0  0  0  0  0  0  0  0  0  0  0  0
    4.5121    0.4259    1.4046 H   0  0  0  0  0  0  0  0  0  0  0  0
  1  2  1  0
  2  3  1  0
  2  4  1  0
  2  5  1  0
  5  6  2  0
  6  7  1  0
  7  8  2  0
  8  9  1  0
  9 10  2  0
  9 11  1  0
 11 12  1  0
 12 13  1  0
 13 14  1  0
 13 15  1  0
 15 16  1  0
 16 17  1  0
 16 18  1  0
 18 19  1  0
 19 20  1  0
 20 21  1  0
 21 22  1  0
 19 23  1  0
 23 24  2  0
 10  5  1  0
 23 11  1  0
 20 13  1  0
 21 16  1  0
  6 25  1  0
  7 26  1  0
  8 27  1  0
 10 28  1  0
 12 29  1  0
 12 30  1  0
 18 31  1  0
 18 32  1  0
 19 33  1  0
 20 34  1  0
 21 35  1  0
M  END
