
 OpenBabel09252518483D

 36 38  0  0  1  0  0  0  0  0999 V2000
    0.9573   -0.0369   -0.0826 H   0  0  0  0  0  0  0  0  0  0  0  0
    2.0273   -0.0369   -0.0826 C   0  0  0  0  0  0  0  0  0  0  0  0
    2.5623   -0.9634   -0.0700 H   0  0  0  0  0  0  0  0  0  0  0  0
    2.7075    1.1411   -0.0986 C   0  0  0  0  0  0  0  0  0  0  0  0
    2.1725    2.0677   -0.1112 H   0  0  0  0  0  0  0  0  0  0  0  0
    4.2275    1.1411   -0.0986 C   0  0  1  0  0  0  0  0  0  0  0  0
    4.5842    0.6487    0.7819 H   0  0  0  0  0  0  0  0  0  0  0  0
    4.7341    0.4078   -1.3298 C   0  0  0  0  0  0  0  0  0  0  0  0
    4.3775    0.9003   -2.2102 H   0  0  0  0  0  0  0  0  0  0  0  0
    5.8041    0.4078   -1.3298 H   0  0  0  0  0  0  0  0  0  0  0  0
    4.3775   -0.6009   -1.3161 H   0  0  0  0  0  0  0  0  0  0  0  0
    4.7341    2.5741   -0.1180 C   0  0  1  0  0  0  0  0  0  0  0  0
    4.3775    3.0666   -0.9985 H   0  0  0  0  0  0  0  0  0  0  0  0
    4.2441    3.2833    1.0727 N   0  0  0  0  0  0  0  0  0  0  0  0
    2.9946    3.4021    1.2722 N   0  0  0  0  0  4  0  0  0  0  0  0
    1.7451    3.5210    1.4717 N   0  0  0  0  0  0  0  0  0  0  0  0
    6.2541    2.5741   -0.1180 C   0  0  2  0  0  0  0  0  0  0  0  0
    6.3028    1.5753    0.2626 H   0  0  0  0  0  0  0  0  0  0  0  0
    7.0246    2.8087    0.9310 C   0  0  1  0  0  0  0  0  0  0  0  0
    7.5643    2.1427    0.2906 H   0  0  0  0  0  0  0  0  0  0  0  0
    8.4232    2.6988    0.4411 C   0  0  1  0  0  0  0  0  0  0  0  0
    7.5869    3.2218    0.0266 H   0  0  0  0  0  0  0  0  0  0  0  0
    8.3342    2.4053   -0.8453 C   0  0  2  0  0  0  0  0  0  0  0  0
    9.1599    2.2489   -1.5076 H   0  0  0  0  0  0  0  0  0  0  0  0
    9.5979    3.0353   -1.4080 C   0  0  0  0  0  0  0  0  0  0  0  0
   10.2513    2.2429   -1.7081 H   0  0  0  0  0  0  0  0  0  0  0  0
    9.3920    3.6653   -2.2480 H   0  0  0  0  0  0  0  0  0  0  0  0
   10.0659    3.6107   -0.6368 H   0  0  0  0  0  0  0  0  0  0  0  0
    7.0364    2.3359   -1.1832 Fe  0  0  0  0  0  0  0  0  0  0  0  0
    8.3909    2.2930    0.3948 C   0  0  0  0  0  0  0  0  0  0  0  0
    9.1841    2.2678    1.3189 O   0  0  0  0  0  0  0  0  0  0  0  0
    7.0621    1.0522   -2.8196 C   0  0  0  0  0  0  0  0  0  0  0  0
    7.0771    0.3005   -3.7779 O   0  0  0  0  0  0  0  0  0  0  0  0
    8.2063    3.5584    0.0265 C   0  0  0  0  0  0  0  0  0  0  0  0
    8.8914    4.2743    0.7349 O   0  0  0  0  0  0  0  0  0  0  0  0
    1.2271    4.2778    1.0254 H   0  0  0  0  0  0  0  0  0  0  0  0
  1  2  1  0  0  0  0
  2  3  1  0  0  0  0
  2  4  2  0  0  0  0
  4  5  1  0  0  0  0
  4  6  1  0  0  0  0
  6  7  1  1  0  0  0
  6  8  1  0  0  0  0
  6 12  1  0  0  0  0
  8  9  1  0  0  0  0
  8 10  1  0  0  0  0
  8 11  1  0  0  0  0
 12 13  1  6  0  0  0
 12 14  1  0  0  0  0
 12 17  1  0  0  0  0
 14 15  2  0  0  0  0
 15 16  2  0  0  0  0
 16 36  1  0  0  0  0
 17 18  1  1  0  0  0
 17 19  2  0  0  0  0
 17 29  1  0  0  0  0
 19 20  1  6  0  0  0
 19 21  1  0  0  0  0
 19 29  1  0  0  0  0
 21 22  1  6  0  0  0
 21 23  2  0  0  0  0
 21 29  1  0  0  0  0
 23 29  1  0  0  0  0
 23 25  1  0  0  0  0
 23 24  1  1  0  0  0
 25 26  1  0  0  0  0
 25 27  1  0  0  0  0
 25 28  1  0  0  0  0
 29 30  1  0  0  0  0
 29 32  1  0  0  0  0
 29 34  1  0  0  0  0
 30 31  3  0  0  0  0
 32 33  3  0  0  0  0
 34 35  3  0  0  0  0
M  END
$$$$
