
  --CCDC--092525    3D                              

 42 41  0  0  0  0  0  0  0  0999 V2000
    0.0796    0.1643    0.1265 C      0
    1.9382    0.0230   -0.7044 Pt     0
    1.1563   -1.0150   -2.2775 C      0
    3.7967   -0.1210   -1.5352 C      0
    2.7175    1.0659    0.8659 N      0
    1.9669    1.7531    1.6012 N      3
    1.2494    2.4574    2.1448 N      5
    2.3079   -2.0425    0.4811 P      0
    0.7293   -2.8357    0.8660 C      0
    3.1965   -1.7362    2.0270 C      0
    3.2752   -3.1678   -0.5541 C      0
    1.5684    2.0891   -1.8903 P      0
   -0.1959    2.3707   -2.1746 C      0
    2.4022    1.9890   -3.4919 C      0
    2.2441    3.4832   -0.9565 C      0
   -0.2147    1.2092    0.1851 H      0
   -0.6349   -0.3797   -0.4860 H      0
    0.0981   -0.2620    1.1272 H      0
    0.0731   -0.9167   -2.2744 H      0
    1.4252   -2.0654   -2.1869 H      0
    1.5539   -0.6185   -3.2094 H      0
    3.7406   -0.6979   -2.4552 H      0
    4.4695   -0.6157   -0.8385 H      0
    4.1724    0.8756   -1.7559 H      0
    0.1629   -3.0272   -0.0427 H      0
    0.1275   -2.2046    1.5162 H      0
    0.8921   -3.7857    1.3710 H      0
    3.3710   -2.6683    2.5611 H      0
    2.6242   -1.0775    2.6772 H      0
    4.1607   -1.2696    1.8369 H      0
    2.7498   -3.3812   -1.4825 H      0
    3.4494   -4.1103   -0.0395 H      0
    4.2408   -2.7333   -0.8042 H      0
   -0.3490    3.2649   -2.7757 H      0
   -0.7265    2.5025   -1.2340 H      0
   -0.6409    1.5294   -2.7015 H      0
    2.0126    1.1572   -4.0751 H      0
    3.4717    1.8381   -3.3608 H      0
    2.2542    2.9033   -4.0621 H      0
    1.7434    3.5861    0.0042 H      0
    2.1146    4.4133   -1.5063 H      0
    3.3071    3.3448   -0.7708 H      0
  1  2  1
  2  3  1
  2  4  1
  2  5  1
  5  6  2
  6  7  2
  2  8  1
  8  9  1
  8 10  1
  8 11  1
  2 12  1
 12 13  1
 12 14  1
 12 15  1
  1 16  1
  1 17  1
  1 18  1
  3 19  1
  3 20  1
  3 21  1
  4 22  1
  4 23  1
  4 24  1
  9 25  1
  9 26  1
  9 27  1
 10 28  1
 10 29  1
 10 30  1
 11 31  1
 11 32  1
 11 33  1
 13 34  1
 13 35  1
 13 36  1
 14 37  1
 14 38  1
 14 39  1
 15 40  1
 15 41  1
 15 42  1
M  CHG  2   6   1   7  -1
M  END
$$$$
