
 OpenBabel09252516383D

 47 52  0  0  0  0  0  0  0  0999 V2000
    0.9003   -0.0083   -0.0001 H   0  0  0  0  0  0  0  0  0  0  0  0
    1.9703   -0.0083   -0.0001 C   0  0  0  0  0  0  0  0  0  0  0  0
    2.6282   -0.9208    0.6822 N   0  0  0  0  0  4  0  0  0  0  0  0
    1.8025   -1.7089    1.7007 C   0  0  0  0  0  0  0  0  0  0  0  0
    1.8683   -2.7540    1.4810 H   0  0  0  0  0  0  0  0  0  0  0  0
    2.1815   -1.5267    2.6846 H   0  0  0  0  0  0  0  0  0  0  0  0
    0.3411   -1.2632    1.6265 C   0  0  0  0  0  0  0  0  0  0  0  0
    0.2757   -0.3420    1.0861 H   0  0  0  0  0  0  0  0  0  0  0  0
   -0.2353   -2.0122    1.1248 H   0  0  0  0  0  0  0  0  0  0  0  0
   -0.2031   -1.0641    3.0432 C   0  0  0  0  0  0  0  0  0  0  0  0
   -1.2616   -1.2204    3.0440 H   0  0  0  0  0  0  0  0  0  0  0  0
    0.2613   -1.7647    3.7054 H   0  0  0  0  0  0  0  0  0  0  0  0
    0.0980    0.3388    3.5043 N   0  0  0  0  0  4  0  0  0  0  0  0
    0.8317    0.5349    4.5719 C   0  0  0  0  0  0  0  0  0  0  0  0
    1.3797   -0.6529    5.3460 C   0  0  0  0  0  0  0  0  0  0  0  0
    2.4487   -0.6082    5.3580 H   0  0  0  0  0  0  0  0  0  0  0  0
    1.0103   -0.6256    6.3498 H   0  0  0  0  0  0  0  0  0  0  0  0
    1.0660   -1.5610    4.8750 H   0  0  0  0  0  0  0  0  0  0  0  0
    1.1323    1.9372    5.0325 C   0  0  0  0  0  3  0  0  0  0  0  0
    2.5828    2.0346    5.4330 C   0  0  0  0  0  3  0  0  0  0  0  0
    2.9055    1.0421    5.6690 H   0  0  0  0  0  0  0  0  0  0  0  0
    3.5934    2.6034    4.4709 C   0  0  0  0  0  3  0  0  0  0  0  0
    4.2195    3.3035    4.9835 H   0  0  0  0  0  0  0  0  0  0  0  0
    4.4085    1.5269    3.9339 C   0  0  0  0  0  3  0  0  0  0  0  0
    3.8828    0.6099    4.1005 H   0  0  0  0  0  0  0  0  0  0  0  0
    4.7134    1.5875    2.6283 C   0  0  0  0  0  3  0  0  0  0  0  0
    3.7860    1.6073    2.0950 H   0  0  0  0  0  0  0  0  0  0  0  0
    5.5535    0.5058    2.0002 C   0  0  0  0  0  3  0  0  0  0  0  0
    4.9188    0.0705    0.6778 O   0  0  0  0  0  0  0  0  0  0  0  0
    4.1149   -1.2097    0.8982 Cu  0  0  0  0  0  0  0  0  0  0  0  0
    5.4541   -2.6466    0.6481 O   0  0  0  0  0  0  0  0  0  0  0  0
    6.3429   -2.2880   -0.3997 C   0  0  0  0  0  3  0  0  0  0  0  0
    7.0746   -0.9854   -0.0727 C   0  0  0  0  0  3  0  0  0  0  0  0
    7.7288   -0.7314   -0.8804 H   0  0  0  0  0  0  0  0  0  0  0  0
    6.0542    0.1362    0.1290 C   0  0  0  0  0  3  0  0  0  0  0  0
    6.5663    1.0474    0.3574 H   0  0  0  0  0  0  0  0  0  0  0  0
    5.2364    0.3179   -1.1509 C   0  0  0  0  0  3  0  0  0  0  0  0
    4.2160    1.4395   -0.9492 C   0  0  0  0  0  3  0  0  0  0  0  0
    4.7282    2.3507   -0.7208 H   0  0  0  0  0  0  0  0  0  0  0  0
    3.3983    1.6212   -2.2291 C   0  0  0  0  0  3  0  0  0  0  0  0
    4.0523    1.8751   -3.0370 H   0  0  0  0  0  0  0  0  0  0  0  0
    2.6658    0.3191   -2.5566 C   0  0  0  0  0  3  0  0  0  0  0  0
    2.0946    0.4466   -3.4524 H   0  0  0  0  0  0  0  0  0  0  0  0
    3.6870   -0.8030   -2.7578 C   0  0  0  0  0  3  0  0  0  0  0  0
    4.3410   -0.5493   -3.5658 H   0  0  0  0  0  0  0  0  0  0  0  0
    4.5047   -0.9847   -1.4780 C   0  0  0  0  0  3  0  0  0  0  0  0
    5.5251   -2.1063   -1.6796 C   0  0  0  0  0  3  0  0  0  0  0  0
  1  2  1  0  0  0  0
  2  3  2  0  0  0  0
  2 47  1  0  0  0  0
  3  4  1  0  0  0  0
  3 30  1  0  0  0  0
  4  5  1  0  0  0  0
  4  6  1  0  0  0  0
  4  7  1  0  0  0  0
  7  8  1  0  0  0  0
  7  9  1  0  0  0  0
  7 10  1  0  0  0  0
 10 11  1  0  0  0  0
 10 12  1  0  0  0  0
 10 13  1  0  0  0  0
 13 14  2  0  0  0  0
 13 30  1  0  0  0  0
 14 15  1  0  0  0  0
 14 19  1  0  0  0  0
 15 16  1  0  0  0  0
 15 17  1  0  0  0  0
 15 18  1  0  0  0  0
 19 20  1  0  0  0  0
 19 28  1  0  0  0  0
 20 21  1  0  0  0  0
 20 22  1  0  0  0  0
 22 23  1  0  0  0  0
 22 24  1  0  0  0  0
 24 25  1  0  0  0  0
 24 26  1  0  0  0  0
 26 27  1  0  0  0  0
 26 28  1  0  0  0  0
 28 29  1  0  0  0  0
 29 30  1  0  0  0  0
 30 31  1  0  0  0  0
 31 32  1  0  0  0  0
 32 33  1  0  0  0  0
 32 47  1  0  0  0  0
 33 34  1  0  0  0  0
 33 35  1  0  0  0  0
 35 36  1  0  0  0  0
 35 37  1  0  0  0  0
 37 38  1  0  0  0  0
 37 46  1  0  0  0  0
 38 39  1  0  0  0  0
 38 40  1  0  0  0  0
 40 41  1  0  0  0  0
 40 42  1  0  0  0  0
 42 43  1  0  0  0  0
 42 44  1  0  0  0  0
 44 45  1  0  0  0  0
 44 46  1  0  0  0  0
 46 47  1  0  0  0  0
M  END
$$$$
