
     RDKit          3D

  0  0  0  0  0  0  0  0  0  0999 V3000
M  V30 BEGIN CTAB
M  V30 COUNTS 43 45 0 0 0
M  V30 BEGIN ATOM
M  V30 1 C 2.507775 -2.295077 -0.510733 0
M  V30 2 C 1.746960 -1.084485 0.053856 0
M  V30 3 N 0.950011 -0.494139 -0.962272 0
M  V30 4 Pt -0.848556 -1.009132 -0.892307 0 VAL=4
M  V30 5 N -1.965031 0.125142 -1.880757 0
M  V30 6 C -2.822568 0.865470 -1.088340 0
M  V30 7 C -2.908290 2.351814 -1.154119 0
M  V30 8 C -2.773056 0.519517 0.380647 0
M  V30 9 C -3.632735 1.062089 1.306692 0
M  V30 10 C -3.546007 0.527329 2.584789 0
M  V30 11 C -2.639438 -0.476005 2.859021 0
M  V30 12 C -1.772470 -1.033493 1.968769 0
M  V30 13 C -1.870147 -0.491422 0.695055 0
M  V30 14 N -0.982775 -2.890494 -1.285423 0
M  V30 15 C -1.970798 -3.300970 -1.957791 0
M  V30 16 O -2.566941 -3.760162 -2.960782 0
M  V30 17 C 2.824065 -0.048975 0.332248 0
M  V30 18 C 2.523583 0.809927 1.384915 0
M  V30 19 C 3.471581 1.788286 1.539569 0
M  V30 20 C 4.604628 1.930575 0.750020 0
M  V30 21 C 4.800771 1.006019 -0.273967 0
M  V30 22 C 3.913463 -0.004798 -0.501142 0
M  V30 23 H 3.554116 -2.331182 -0.154299 0
M  V30 24 H 2.472576 -2.185746 -1.627020 0
M  V30 25 H 2.018323 -3.238003 -0.160950 0
M  V30 26 H 1.269219 -1.394063 0.970937 0
M  V30 27 H 0.974039 0.552665 -0.993829 0
M  V30 28 H 1.235581 -0.815635 -1.938142 0
M  V30 29 H -2.494621 -0.513800 -2.562586 0
M  V30 30 H -1.407008 0.718091 -2.491486 0
M  V30 31 H -3.911422 0.469987 -1.349402 0
M  V30 32 H -1.928569 2.704573 -1.608140 0
M  V30 33 H -2.855978 2.848126 -0.117488 0
M  V30 34 H -3.789434 2.771426 -1.643744 0
M  V30 35 H -4.337101 1.847347 1.002351 0
M  V30 36 H -4.206436 0.906879 3.338076 0
M  V30 37 H -2.573166 -0.885626 3.873892 0
M  V30 38 H -1.033572 -1.791112 2.071575 0
M  V30 39 H 1.637932 0.698097 2.014657 0
M  V30 40 H 3.322917 2.521307 2.347624 0
M  V30 41 H 5.303876 2.736807 0.870835 0
M  V30 42 H 5.665672 1.041757 -0.930603 0
M  V30 43 H 4.039031 -0.758914 -1.300204 0
M  V30 END ATOM
M  V30 BEGIN BOND
M  V30 1 1 1 2
M  V30 2 1 2 3
M  V30 3 9 3 4
M  V30 4 9 5 4
M  V30 5 1 5 6
M  V30 6 1 6 7
M  V30 7 1 6 8
M  V30 8 2 8 9
M  V30 9 1 9 10
M  V30 10 2 10 11
M  V30 11 1 11 12
M  V30 12 2 12 13
M  V30 13 1 4 14
M  V30 14 2 14 15
M  V30 15 2 15 16
M  V30 16 1 2 17
M  V30 17 2 17 18
M  V30 18 1 18 19
M  V30 19 2 19 20
M  V30 20 1 20 21
M  V30 21 2 21 22
M  V30 22 1 13 4
M  V30 23 1 22 17
M  V30 24 1 13 8
M  V30 25 1 1 23
M  V30 26 1 1 24
M  V30 27 1 1 25
M  V30 28 1 2 26
M  V30 29 1 3 27
M  V30 30 1 3 28
M  V30 31 1 5 29
M  V30 32 1 5 30
M  V30 33 1 6 31
M  V30 34 1 7 32
M  V30 35 1 7 33
M  V30 36 1 7 34
M  V30 37 1 9 35
M  V30 38 1 10 36
M  V30 39 1 11 37
M  V30 40 1 12 38
M  V30 41 1 18 39
M  V30 42 1 19 40
M  V30 43 1 20 41
M  V30 44 1 21 42
M  V30 45 1 22 43
M  V30 END BOND
M  V30 END CTAB
M  END
