
     RDKit          3D

 29 30  0  0  0  0  0  0  0  0999 V2000
   -1.7935    0.9672   -0.2592 C   0  0  0  0  0  0  0  0  0  0  0  0
   -1.3074   -0.3539    0.1101 N   0  0  0  0  0  0  0  0  0  0  0  0
    0.0074   -0.6804   -0.2438 C   0  0  0  0  0  0  0  0  0  0  0  0
    0.2517   -2.3882   -1.8774 Au  0  0  0  0  0  3  0  0  0  0  0  0
    0.2790   -3.2829   -2.7300 Cl  0  0  0  0  0  0  0  0  0  0  0  0
    1.2582   -0.2059    0.1669 N   0  0  0  0  0  0  0  0  0  0  0  0
    2.3756   -0.9065    0.7808 C   0  0  0  0  0  0  0  0  0  0  0  0
    3.5384   -0.2024    0.0809 C   0  0  0  0  0  0  0  0  0  0  0  0
    3.1352    1.2378    0.3480 C   0  0  0  0  0  0  0  0  0  0  0  0
    1.6545    1.1828    0.0249 C   0  0  0  0  0  0  0  0  0  0  0  0
   -2.3610   -1.0895    0.8093 C   0  0  0  0  0  0  0  0  0  0  0  0
   -3.3816   -0.0207    1.1621 C   0  0  0  0  0  0  0  0  0  0  0  0
   -3.2893    0.8821   -0.0606 C   0  0  0  0  0  0  0  0  0  0  0  0
   -1.3566    1.6992    0.4504 H   0  0  0  0  0  0  0  0  0  0  0  0
   -1.6124    1.2217   -1.3213 H   0  0  0  0  0  0  0  0  0  0  0  0
    2.3226   -1.9722    0.5753 H   0  0  0  0  0  0  0  0  0  0  0  0
    2.4936   -0.6804    1.8517 H   0  0  0  0  0  0  0  0  0  0  0  0
    4.4950   -0.4663    0.5253 H   0  0  0  0  0  0  0  0  0  0  0  0
    3.4411   -0.4193   -0.9967 H   0  0  0  0  0  0  0  0  0  0  0  0
    3.3341    1.4264    1.4303 H   0  0  0  0  0  0  0  0  0  0  0  0
    3.6926    1.9404   -0.3101 H   0  0  0  0  0  0  0  0  0  0  0  0
    1.5475    1.4406   -1.0472 H   0  0  0  0  0  0  0  0  0  0  0  0
    1.0745    1.8511    0.6903 H   0  0  0  0  0  0  0  0  0  0  0  0
   -1.9859   -1.5693    1.7318 H   0  0  0  0  0  0  0  0  0  0  0  0
   -2.8761   -1.8012    0.1488 H   0  0  0  0  0  0  0  0  0  0  0  0
   -3.0352    0.4731    2.0881 H   0  0  0  0  0  0  0  0  0  0  0  0
   -4.3948   -0.4567    1.2786 H   0  0  0  0  0  0  0  0  0  0  0  0
   -3.7436    0.3087   -0.8965 H   0  0  0  0  0  0  0  0  0  0  0  0
   -3.7634    1.8646    0.0906 H   0  0  0  0  0  0  0  0  0  0  0  0
  1  2  1  0
  2  3  1  0
  3  4  2  3
  4  5  1  0
  3  6  1  0
  6  7  1  0
  7  8  1  0
  8  9  1  0
  9 10  1  0
  2 11  1  0
 11 12  1  0
 12 13  1  0
 13  1  1  0
 10  6  1  0
  1 14  1  0
  1 15  1  0
  7 16  1  0
  7 17  1  0
  8 18  1  0
  8 19  1  0
  9 20  1  0
  9 21  1  0
 10 22  1  0
 10 23  1  0
 11 24  1  0
 11 25  1  0
 12 26  1  0
 12 27  1  0
 13 28  1  0
 13 29  1  0
M  END
