
  --CCDC--092525    3D                              

114121  0  0  0  0  0  0  0  0999 V2000
   -0.0939   -0.5574   -0.6395 C      0
    0.9282   -0.0808    0.1970 O      0
    1.7613   -1.1067    0.7273 C      0
    3.1612   -1.1406    0.1318 C      0
    3.8941    0.0754    0.2881 O      0
    5.1870   -0.0297   -0.2475 C      0
    2.3334    2.0110   -0.5999 Eu     0
    2.2734    0.3853   -2.7094 N      0
    2.2433   -0.4291   -3.7661 C      0
    2.1942   -1.4873   -5.1099 S      0
    1.8507    2.3231    1.9907 N      0
    1.7575    1.2219    2.8925 C      0
    0.4980    0.7180    3.3212 C      0
    0.5102   -0.2291    4.3448 C      0
    1.6778   -0.7124    4.8958 C      0
    2.8888   -0.2445    4.4350 C      0
    2.9629    0.7202    3.4341 C      0
    4.3524    1.1724    3.0101 C      0
    5.2989   -0.0252    2.9024 C      0
    4.9628    2.1437    4.0178 C      0
   -0.9153    1.0771    2.8521 C      0
   -1.7861   -0.0154    2.2345 C      0
   -1.7274    1.6593    4.0084 C      0
    1.4565    3.5896    2.4543 C      0
    1.6040    4.6927    1.6353 C      0
    2.4389    4.5072    0.4542 N      0
    3.0563    5.6948   -0.1542 C      0
    2.8478    7.0023    0.3536 C      0
    2.3316    7.8978   -0.5846 C      0
    2.6344    7.7090   -1.9153 C      0
    3.5818    6.7511   -2.2090 C      0
    3.9606    5.8140   -1.2406 C      0
    5.3816    5.2557   -1.3278 C      0
    5.9141    5.2733   -2.7623 C      0
    6.3918    6.0729   -0.5240 C      0
    3.3060    7.5619    1.7092 C      0
    2.7415    8.9550    1.9905 C      0
    4.8189    7.7000    1.7942 C      0
    0.8926    5.7921    2.3440 C      0
    0.3748    7.0464    2.0775 C      0
   -0.2112    7.8198    3.0722 C      0
   -0.3695    7.3688    4.3495 C      0
    0.0235    6.0520    4.6681 C      0
   -0.1323    5.4159    5.9207 C      0
    0.2502    4.1134    6.0745 C      0
    0.7896    3.3761    5.0275 C      0
    0.9536    3.9507    3.7844 C      0
    0.6084    5.2973    3.6318 C      0
    0.9123    3.3598   -2.3707 O      0
   -0.0539    2.6569   -3.1026 C      0
    1.7922    4.0815   -3.2203 C      0
    3.1032    3.3811   -3.5543 C      0
    3.8985    3.1212   -2.4038 O      0
    5.0664    2.3911   -2.6772 C      0
   -0.8503    0.2087   -0.7981 H      0
   -0.5793   -1.4278   -0.2047 H      0
    0.3042   -0.8428   -1.6101 H      0
    1.2710   -2.0718    0.5509 H      0
    1.8233   -1.0220    1.8165 H      0
    3.7146   -1.9763    0.5824 H      0
    3.0822   -1.3717   -0.9394 H      0
    5.7389   -0.8584    0.1950 H      0
    5.1334   -0.1920   -1.3217 H      0
    5.7467    0.8856   -0.0722 H      0
   -0.4335   -0.5899    4.7382 H      0
    1.6423   -1.4528    5.6883 H      0
    3.7989   -0.6294    4.8784 H      0
    4.2831    1.6699    2.0307 H      0
    6.1910    0.2329    2.3361 H      0
    4.8152   -0.8688    2.4159 H      0
    5.6164   -0.3561    3.8870 H      0
    5.0522    1.6680    4.9923 H      0
    4.3488    3.0352    4.1263 H      0
    5.9585    2.4462    3.6979 H      0
   -0.8219    1.8790    2.1028 H      0
   -2.6557   -0.1973    2.8628 H      0
   -1.2379   -0.9481    2.1281 H      0
   -2.1630    0.2883    1.2629 H      0
   -1.4945    1.1612    4.9459 H      0
   -2.7914    1.5341    3.8189 H      0
   -1.5342    2.7219    4.1313 H      0
    1.7475    8.7629   -0.2912 H      0
    2.2224    8.3482   -2.6887 H      0
    4.0196    6.7544   -3.1996 H      0
    5.4036    4.2328   -0.9313 H      0
    6.6753    4.5121   -2.9132 H      0
    6.3526    6.2396   -3.0028 H      0
    5.1125    5.0896   -3.4710 H      0
    7.4058    5.8450   -0.8415 H      0
    6.3336    5.8327    0.5293 H      0
    6.2354    7.1424   -0.6467 H      0
    3.0217    6.9105    2.5430 H      0
    3.3480    9.7172    1.5062 H      0
    1.7223    9.0532    1.6246 H      0
    2.7358    9.1591    3.0595 H      0
    5.2635    6.7590    2.1025 H      0
    5.0934    8.4534    2.5294 H      0
    5.2340    7.9947    0.8338 H      0
    0.4314    7.4470    1.0724 H      0
   -0.5563    8.8177    2.8232 H      0
   -0.8197    8.0053    5.1038 H      0
   -0.5612    5.9606    6.7553 H      0
    0.1313    3.6427    7.0450 H      0
    1.1028    2.3519    5.2019 H      0
   -0.5874    3.3393   -3.7593 H      0
    0.3980    1.8741   -3.7130 H      0
   -0.7744    2.1988   -2.4289 H      0
    1.2686    4.3225   -4.1514 H      0
    1.9985    5.0393   -2.7480 H      0
    2.8932    2.4358   -4.0689 H      0
    3.6787    3.9862   -4.2694 H      0
    4.8263    1.3527   -2.8825 H      0
    5.7340    2.4229   -1.8180 H      0
    5.6046    2.7921   -3.5321 H      0
  1  2  1
  2  3  1
  3  4  1
  4  5  1
  5  6  1
  5  7  1
  2  7  1
  7  8  1
  8  9  4
  9 10  4
  7 11  1
 11 12  1
 12 13  4
 13 14  4
 14 15  4
 15 16  4
 16 17  4
 12 17  4
 17 18  1
 18 19  1
 18 20  1
 13 21  1
 21 22  1
 21 23  1
 11 24  1
 24 25  2
 25 26  1
  7 26  1
 26 27  1
 27 28  4
 28 29  4
 29 30  4
 30 31  4
 31 32  4
 27 32  4
 32 33  1
 33 34  1
 33 35  1
 28 36  1
 36 37  1
 36 38  1
 25 39  1
 39 40  4
 40 41  4
 41 42  4
 42 43  4
 43 44  4
 44 45  4
 45 46  4
 46 47  4
 24 47  1
 47 48  4
 39 48  4
 43 48  4
  7 49  1
 49 50  1
 49 51  1
 51 52  1
 52 53  1
  7 53  1
 53 54  1
  1 55  1
  1 56  1
  1 57  1
  3 58  1
  3 59  1
  4 60  1
  4 61  1
  6 62  1
  6 63  1
  6 64  1
 14 65  1
 15 66  1
 16 67  1
 18 68  1
 19 69  1
 19 70  1
 19 71  1
 20 72  1
 20 73  1
 20 74  1
 21 75  1
 22 76  1
 22 77  1
 22 78  1
 23 79  1
 23 80  1
 23 81  1
 29 82  1
 30 83  1
 31 84  1
 33 85  1
 34 86  1
 34 87  1
 34 88  1
 35 89  1
 35 90  1
 35 91  1
 36 92  1
 37 93  1
 37 94  1
 37 95  1
 38 96  1
 38 97  1
 38 98  1
 40 99  1
 41100  1
 42101  1
 44102  1
 45103  1
 46104  1
 50105  1
 50106  1
 50107  1
 51108  1
 51109  1
 52110  1
 52111  1
 54112  1
 54113  1
 54114  1
M  END
$$$$
