
  --CCDC--092525    3D                              

 34 33  0  0  0  0  0  0  0  0999 V2000
    0.0005    0.0001    0.0016 Br     0
    1.6405    2.8409   -0.0008 La     0
    2.1131    3.9073    3.0650 Br     0
    3.3914    0.6062    1.6419 Br     0
    0.1174    3.2233   -2.2585 N      0
   -0.5136    3.3812   -3.1959 C      0
   -1.3218    3.5482   -4.3957 C      0
    2.8870    1.6254   -2.1294 N      0
    3.4041    1.1210   -3.0125 C      0
    4.0350    0.4566   -4.1444 C      0
    4.1406    3.9433   -0.3117 N      0
    5.1779    4.4005   -0.4409 C      0
    6.4925    4.9946   -0.6393 C      0
    1.3717    5.5426   -0.4387 N      0
    1.2589    6.6630   -0.6223 C      0
    1.0801    8.0895   -0.8542 C      0
   -0.8072    3.2275    1.1917 N      0
   -1.8234    3.3857    1.6862 C      0
   -3.1109    3.5614    2.3438 C      0
   -1.6007    2.5817   -4.8105 H      0
   -0.7719    4.0979   -5.1570 H      0
   -2.2340    4.0980   -4.1733 H      0
    3.2852    0.0577   -4.8245 H      0
    4.6607   -0.3678   -3.8083 H      0
    4.6606    1.1523   -4.6999 H      0
    6.7143    5.0948   -1.6998 H      0
    7.2669    4.3776   -0.1879 H      0
    6.5410    5.9835   -0.1879 H      0
    0.0231    8.3443   -0.8960 H      0
    1.5378    8.3873   -1.7953 H      0
    1.5378    8.6701   -0.0560 H      0
   -3.5611    2.5982    2.5736 H      0
   -3.7975    4.1129    1.7053 H      0
   -2.9968    4.1126    3.2746 H      0
  1  2  1
  2  3  1
  2  4  1
  2  5  1
  5  6  3
  6  7  1
  2  8  1
  8  9  3
  9 10  1
  2 11  1
 11 12  3
 12 13  1
  2 14  1
 14 15  3
 15 16  1
  2 17  1
 17 18  3
 18 19  1
  7 20  1
  7 21  1
  7 22  1
 10 23  1
 10 24  1
 10 25  1
 13 26  1
 13 27  1
 13 28  1
 16 29  1
 16 30  1
 16 31  1
 19 32  1
 19 33  1
 19 34  1
M  END
$$$$
