
 OpenBabel09252513173D

 87103  0  0  1  0  0  0  0  0999 V2000
    1.0879   -0.0233   -0.0415 H   0  0  0  0  0  0  0  0  0  0  0  0
    2.1579   -0.0233   -0.0415 C   0  0  0  0  0  3  0  0  0  0  0  0
    2.6702   -1.4063   -0.4507 C   0  0  0  0  0  3  0  0  0  0  0  0
    2.2810   -2.1437    0.2199 H   0  0  0  0  0  0  0  0  0  0  0  0
    2.2399   -1.6984   -1.7819 C   0  0  0  0  0  3  0  0  0  0  0  0
    2.5802   -2.6802   -2.0372 H   0  0  0  0  0  0  0  0  0  0  0  0
    2.7274   -0.7844   -2.7659 C   0  0  0  0  0  3  0  0  0  0  0  0
    4.5573   -0.7886   -2.7494 P   0  3  0  0  0  0  0  0  0  0  0  0
    5.1668   -2.4725   -3.1259 C   0  0  0  0  0  3  0  0  0  0  0  0
    4.0841   -2.7629   -2.0840 C   0  0  0  0  0  3  0  0  0  0  0  0
    4.0540   -1.9670   -1.3694 H   0  0  0  0  0  0  0  0  0  0  0  0
    2.8152   -2.8688   -2.7331 C   0  0  0  0  0  3  0  0  0  0  0  0
    2.0687   -3.0399   -1.9858 H   0  0  0  0  0  0  0  0  0  0  0  0
    2.7382   -3.9233   -3.6941 C   0  0  0  0  0  3  0  0  0  0  0  0
    2.9437   -4.8579   -3.2154 H   0  0  0  0  0  0  0  0  0  0  0  0
    3.7665   -3.6798   -4.8012 C   0  0  0  0  0  3  0  0  0  0  0  0
    3.7395   -4.4901   -5.4995 H   0  0  0  0  0  0  0  0  0  0  0  0
    5.1628   -3.5863   -4.1782 C   0  0  0  0  0  3  0  0  0  0  0  0
    5.4121   -4.5181   -3.7151 H   0  0  0  0  0  0  0  0  0  0  0  0
    5.4202    0.8299   -4.4919 Ru  0  0  0  0  0  0  0  0  0  0  0  0
    5.8803   -0.1425   -5.8975 H   0  0  0  0  0  0  0  0  0  0  0  0
    5.0591    4.7026   -7.5699 Ru  0  0  0  0  0  0  0  0  0  0  0  0
    5.2396    2.7662   -6.0309 Cl  0  0  0  0  0  2  0  0  0  0  0  0
    5.7225    7.0779   -7.1923 C   0  0  2  0  0  0  0  0  0  0  0  0
    6.2869    8.2662   -6.4309 C   0  0  0  0  0  0  0  0  0  0  0  0
    6.5799    9.0272   -7.1236 H   0  0  0  0  0  0  0  0  0  0  0  0
    5.5398    8.6539   -5.7702 H   0  0  0  0  0  0  0  0  0  0  0  0
    7.1381    7.9541   -5.8627 H   0  0  0  0  0  0  0  0  0  0  0  0
    6.2089    5.7094   -7.6794 C   0  0  2  0  0  0  0  0  0  0  0  0
    6.6580    5.8142   -9.1277 C   0  0  0  0  0  0  0  0  0  0  0  0
    5.8367    6.1361   -9.7334 H   0  0  0  0  0  0  0  0  0  0  0  0
    7.4561    6.5229   -9.2032 H   0  0  0  0  0  0  0  0  0  0  0  0
    6.9973    4.8575   -9.4661 H   0  0  0  0  0  0  0  0  0  0  0  0
    4.2497    5.3174   -9.8440 C   0  0  2  0  0  0  0  0  0  0  0  0
    5.4153    6.2812   -9.9959 C   0  0  0  0  0  0  0  0  0  0  0  0
    5.1291    7.2468   -9.6345 H   0  0  0  0  0  0  0  0  0  0  0  0
    6.2506    5.9224   -9.4317 H   0  0  0  0  0  0  0  0  0  0  0  0
    5.6866    6.3529  -11.0285 H   0  0  0  0  0  0  0  0  0  0  0  0
    3.8643    5.2156   -8.3772 C   0  0  2  0  0  0  0  0  0  0  0  0
    2.6988    4.2517   -8.2258 C   0  0  0  0  0  0  0  0  0  0  0  0
    2.4274    4.1797   -7.1933 H   0  0  0  0  0  0  0  0  0  0  0  0
    1.8635    4.6107   -8.7899 H   0  0  0  0  0  0  0  0  0  0  0  0
    2.9851    3.2863   -8.5875 H   0  0  0  0  0  0  0  0  0  0  0  0
    3.4821    6.5052   -7.8941 C   0  0  2  0  0  0  0  0  0  0  0  0
    2.1841    7.2623   -7.6653 C   0  0  0  0  0  0  0  0  0  0  0  0
    1.6597    7.3596   -8.5929 H   0  0  0  0  0  0  0  0  0  0  0  0
    1.5767    6.7258   -6.9667 H   0  0  0  0  0  0  0  0  0  0  0  0
    2.4023    8.2345   -7.2752 H   0  0  0  0  0  0  0  0  0  0  0  0
    4.5020    7.4986   -8.0143 C   0  0  1  0  0  0  0  0  0  0  0  0
    4.3023    8.8978   -8.5737 C   0  0  0  0  0  0  0  0  0  0  0  0
    3.9585    8.8320   -9.5848 H   0  0  0  0  0  0  0  0  0  0  0  0
    3.5768    9.4176   -7.9835 H   0  0  0  0  0  0  0  0  0  0  0  0
    5.2309    9.4287   -8.5465 H   0  0  0  0  0  0  0  0  0  0  0  0
    3.7279   -0.1169   -2.9219 C   0  0  2  0  0  0  0  0  0  0  0  0
    3.2188   -0.7995   -1.6629 C   0  0  0  0  0  0  0  0  0  0  0  0
    2.1896   -0.5487   -1.5125 H   0  0  0  0  0  0  0  0  0  0  0  0
    3.3158   -1.8599   -1.7681 H   0  0  0  0  0  0  0  0  0  0  0  0
    3.7927   -0.4706   -0.8219 H   0  0  0  0  0  0  0  0  0  0  0  0
    4.5261    1.1388   -3.2865 C   0  0  2  0  0  0  0  0  0  0  0  0
    3.5694    2.2665   -3.6376 C   0  0  0  0  0  0  0  0  0  0  0  0
    2.9648    1.9750   -4.4709 H   0  0  0  0  0  0  0  0  0  0  0  0
    2.9412    2.4760   -2.7971 H   0  0  0  0  0  0  0  0  0  0  0  0
    4.1287    3.1426   -3.8919 H   0  0  0  0  0  0  0  0  0  0  0  0
    3.5846    1.4396   -6.0615 C   0  0  2  0  0  0  0  0  0  0  0  0
    2.6994    1.8049   -4.8811 C   0  0  0  0  0  0  0  0  0  0  0  0
    2.1458    0.9436   -4.5703 H   0  0  0  0  0  0  0  0  0  0  0  0
    3.3087    2.1486   -4.0713 H   0  0  0  0  0  0  0  0  0  0  0  0
    2.0207    2.5798   -5.1706 H   0  0  0  0  0  0  0  0  0  0  0  0
    4.5487    0.3388   -5.6502 C   0  0  2  0  0  0  0  0  0  0  0  0
    5.4337   -0.0263   -6.8309 C   0  0  0  0  0  0  0  0  0  0  0  0
    6.1126   -0.8011   -6.5416 H   0  0  0  0  0  0  0  0  0  0  0  0
    4.8243   -0.3700   -7.6405 H   0  0  0  0  0  0  0  0  0  0  0  0
    5.9870    0.8352   -7.1417 H   0  0  0  0  0  0  0  0  0  0  0  0
    3.8095   -0.8118   -5.2350 C   0  0  2  0  0  0  0  0  0  0  0  0
    3.3626   -2.1249   -5.8566 C   0  0  0  0  0  0  0  0  0  0  0  0
    2.7406   -1.9249   -6.7040 H   0  0  0  0  0  0  0  0  0  0  0  0
    4.2210   -2.6825   -6.1680 H   0  0  0  0  0  0  0  0  0  0  0  0
    2.8115   -2.6915   -5.1354 H   0  0  0  0  0  0  0  0  0  0  0  0
    2.9222   -0.5712   -4.1413 C   0  0  2  0  0  0  0  0  0  0  0  0
    1.4697   -1.0142   -4.0761 C   0  0  0  0  0  0  0  0  0  0  0  0
    0.9253   -0.5720   -4.8842 H   0  0  0  0  0  0  0  0  0  0  0  0
    1.4182   -2.0803   -4.1526 H   0  0  0  0  0  0  0  0  0  0  0  0
    1.0431   -0.7024   -3.1458 H   0  0  0  0  0  0  0  0  0  0  0  0
    2.2174    0.6237   -2.4504 C   0  0  0  0  0  3  0  0  0  0  0  0
    2.6157    1.3166   -3.1619 H   0  0  0  0  0  0  0  0  0  0  0  0
    2.6708    1.0183   -1.0414 C   0  0  0  0  0  3  0  0  0  0  0  0
    3.7396    1.0541   -1.0054 H   0  0  0  0  0  0  0  0  0  0  0  0
  1  2  1  0  0  0  0
  2  3  1  0  0  0  0
  2 86  1  0  0  0  0
  3  4  1  0  0  0  0
  3  5  1  0  0  0  0
  5  6  1  0  0  0  0
  5  7  1  0  0  0  0
  7  8  1  0  0  0  0
  7 84  1  0  0  0  0
  8  9  1  0  0  0  0
  8 20  1  0  0  0  0
  8 22  1  0  0  0  0
  9 10  1  0  0  0  0
  9 18  1  0  0  0  0
 10 11  1  0  0  0  0
 10 12  1  0  0  0  0
 12 13  1  0  0  0  0
 12 14  1  0  0  0  0
 14 15  1  0  0  0  0
 14 16  1  0  0  0  0
 16 17  1  0  0  0  0
 16 18  1  0  0  0  0
 18 19  1  0  0  0  0
 20 21  1  0  0  0  0
 20 22  1  0  0  0  0
 20 23  1  0  0  0  0
 20 54  1  0  0  0  0
 20 59  1  0  0  0  0
 20 64  1  0  0  0  0
 20 69  1  0  0  0  0
 20 74  1  0  0  0  0
 20 79  1  0  0  0  0
 21 22  1  0  0  0  0
 22 23  1  0  0  0  0
 22 24  1  0  0  0  0
 22 29  1  0  0  0  0
 22 34  1  0  0  0  0
 22 39  1  0  0  0  0
 22 44  1  0  0  0  0
 22 49  1  0  0  0  0
 24 25  1  6  0  0  0
 24 29  1  0  0  0  0
 24 49  1  0  0  0  0
 25 26  1  0  0  0  0
 25 27  1  0  0  0  0
 25 28  1  0  0  0  0
 29 30  1  1  0  0  0
 29 34  1  0  0  0  0
 30 31  1  0  0  0  0
 30 32  1  0  0  0  0
 30 33  1  0  0  0  0
 34 35  1  1  0  0  0
 34 39  1  0  0  0  0
 35 36  1  0  0  0  0
 35 37  1  0  0  0  0
 35 38  1  0  0  0  0
 39 40  1  6  0  0  0
 39 44  1  0  0  0  0
 40 41  1  0  0  0  0
 40 42  1  0  0  0  0
 40 43  1  0  0  0  0
 44 45  1  6  0  0  0
 44 49  1  0  0  0  0
 45 46  1  0  0  0  0
 45 47  1  0  0  0  0
 45 48  1  0  0  0  0
 49 50  1  1  0  0  0
 50 51  1  0  0  0  0
 50 52  1  0  0  0  0
 50 53  1  0  0  0  0
 54 55  1  6  0  0  0
 54 59  1  0  0  0  0
 54 79  1  0  0  0  0
 55 56  1  0  0  0  0
 55 57  1  0  0  0  0
 55 58  1  0  0  0  0
 59 60  1  6  0  0  0
 59 64  1  0  0  0  0
 60 61  1  0  0  0  0
 60 62  1  0  0  0  0
 60 63  1  0  0  0  0
 64 65  1  1  0  0  0
 64 69  1  0  0  0  0
 65 66  1  0  0  0  0
 65 67  1  0  0  0  0
 65 68  1  0  0  0  0
 69 70  1  1  0  0  0
 69 74  1  0  0  0  0
 70 71  1  0  0  0  0
 70 72  1  0  0  0  0
 70 73  1  0  0  0  0
 74 75  1  1  0  0  0
 74 79  1  0  0  0  0
 75 76  1  0  0  0  0
 75 77  1  0  0  0  0
 75 78  1  0  0  0  0
 79 80  1  6  0  0  0
 80 81  1  0  0  0  0
 80 82  1  0  0  0  0
 80 83  1  0  0  0  0
 84 85  1  0  0  0  0
 84 86  1  0  0  0  0
 86 87  1  0  0  0  0
M  CHG  1   8   1
M  END
$$$$
