
 OpenBabel09252515173D

 48 56  0  0  1  0  0  0  0  0999 V2000
    1.0552    0.0553   -0.0625 H   0  0  0  0  0  0  0  0  0  0  0  0
    2.1252    0.0553   -0.0625 C   0  0  0  0  0  3  0  0  0  0  0  0
    2.6319   -0.9256   -1.1073 C   0  0  0  0  0  3  0  0  0  0  0  0
    3.7019   -0.9256   -1.1073 H   0  0  0  0  0  0  0  0  0  0  0  0
    2.1252   -2.3208   -0.7803 C   0  0  0  0  0  3  0  0  0  0  0  0
    1.0417   -2.6554   -1.7843 C   0  0  0  0  0  3  0  0  0  0  0  0
    1.7403   -3.0871   -3.0816 C   0  0  0  0  0  3  0  0  0  0  0  0
    2.6538   -1.9725   -3.5650 C   0  0  0  0  0  3  0  0  0  0  0  0
    3.3902   -1.7652   -2.8169 H   0  0  0  0  0  0  0  0  0  0  0  0
    3.3434   -2.4037   -4.8491 C   0  0  0  0  0  3  0  0  0  0  0  0
    2.6070   -2.6110   -5.5971 H   0  0  0  0  0  0  0  0  0  0  0  0
    4.2569   -1.2891   -5.3325 C   0  0  0  0  0  3  0  0  0  0  0  0
    4.1778   -0.8774   -6.3169 H   0  0  0  0  0  0  0  0  0  0  0  0
    0.1753   -1.4333   -2.0417 C   0  0  0  0  0  3  0  0  0  0  0  0
    2.6319   -0.3592    1.3094 C   0  0  0  0  0  3  0  0  0  0  0  0
    3.6069   -0.7651    1.4809 H   0  0  0  0  0  0  0  0  0  0  0  0
    2.5672   -4.3453   -2.8022 Ir  0  0  0  0  0  0  0  0  0  0  0  0
    3.2677   -2.6677   -4.4146 Cl  0  0  0  0  0  0  0  0  0  0  0  0
    3.4990   -4.1298   -1.6457 C   0  0  0  0  0  0  0  0  0  0  0  0
    3.9720   -3.4595   -0.9588 H   0  0  0  0  0  0  0  0  0  0  0  0
    3.1433   -3.3674   -2.3069 H   0  0  0  0  0  0  0  0  0  0  0  0
    3.2990   -3.2118   -0.7157 C   0  0  1  0  0  0  0  0  0  0  0  0
    2.5169   -3.7155   -1.2444 H   0  0  0  0  0  0  0  0  0  0  0  0
    1.6183   -6.3157   -4.8201 C   0  0  2  0  0  0  0  0  0  0  0  0
    1.4208   -7.5277   -5.7157 C   0  0  0  0  0  0  0  0  0  0  0  0
    2.1329   -7.5016   -6.5139 H   0  0  0  0  0  0  0  0  0  0  0  0
    1.5598   -8.4206   -5.1428 H   0  0  0  0  0  0  0  0  0  0  0  0
    0.4305   -7.5145   -6.1207 H   0  0  0  0  0  0  0  0  0  0  0  0
    0.7478   -6.0199   -3.5951 C   0  0  2  0  0  0  0  0  0  0  0  0
   -0.6389   -6.6166   -3.7725 C   0  0  0  0  0  0  0  0  0  0  0  0
   -1.2646   -5.9174   -4.2868 H   0  0  0  0  0  0  0  0  0  0  0  0
   -0.5689   -7.5193   -4.3427 H   0  0  0  0  0  0  0  0  0  0  0  0
   -1.0595   -6.8328   -2.8126 H   0  0  0  0  0  0  0  0  0  0  0  0
    1.6348   -5.4956   -2.4884 C   0  0  2  0  0  0  0  0  0  0  0  0
    1.0426   -6.0869   -1.2195 C   0  0  0  0  0  0  0  0  0  0  0  0
    1.0732   -7.1550   -1.2755 H   0  0  0  0  0  0  0  0  0  0  0  0
    1.6100   -5.7576   -0.3742 H   0  0  0  0  0  0  0  0  0  0  0  0
    0.0278   -5.7641   -1.1155 H   0  0  0  0  0  0  0  0  0  0  0  0
    3.3759   -4.7057   -4.0537 C   0  0  2  0  0  0  0  0  0  0  0  0
    4.7787   -4.4650   -4.5871 C   0  0  0  0  0  0  0  0  0  0  0  0
    5.2393   -5.4036   -4.8151 H   0  0  0  0  0  0  0  0  0  0  0  0
    4.7258   -3.8689   -5.4741 H   0  0  0  0  0  0  0  0  0  0  0  0
    5.3587   -3.9534   -3.8476 H   0  0  0  0  0  0  0  0  0  0  0  0
    2.4172   -5.0643   -5.1897 C   0  0  2  0  0  0  0  0  0  0  0  0
    2.2900   -4.8362   -6.6871 C   0  0  0  0  0  0  0  0  0  0  0  0
    1.4221   -4.2426   -6.8852 H   0  0  0  0  0  0  0  0  0  0  0  0
    3.1600   -4.3268   -7.0456 H   0  0  0  0  0  0  0  0  0  0  0  0
    2.1984   -5.7791   -7.1846 H   0  0  0  0  0  0  0  0  0  0  0  0
  1  2  1  0  0  0  0
  2  3  1  0  0  0  0
  2 15  1  0  0  0  0
  3  5  1  0  0  0  0
  3  4  1  0  0  0  0
  5  6  1  0  0  0  0
  5 22  1  0  0  0  0
  6  7  1  0  0  0  0
  6 14  1  0  0  0  0
  7  8  1  0  0  0  0
  7 17  1  0  0  0  0
  8 10  1  0  0  0  0
  8  9  1  0  0  0  0
 10 12  1  0  0  0  0
 10 11  1  0  0  0  0
 12 14  1  0  0  0  0
 12 13  1  0  0  0  0
 14 15  1  0  0  0  0
 15 16  1  0  0  0  0
 17 19  1  0  0  0  0
 17 22  1  0  0  0  0
 17 24  1  0  0  0  0
 17 29  1  0  0  0  0
 17 34  1  0  0  0  0
 17 39  1  0  0  0  0
 17 44  1  0  0  0  0
 17 18  1  0  0  0  0
 19 22  2  0  0  0  0
 19 20  1  0  0  0  0
 19 21  1  0  0  0  0
 22 23  1  1  0  0  0
 24 29  1  0  0  0  0
 24 44  1  0  0  0  0
 24 25  1  1  0  0  0
 25 26  1  0  0  0  0
 25 27  1  0  0  0  0
 25 28  1  0  0  0  0
 29 34  1  0  0  0  0
 29 30  1  6  0  0  0
 30 31  1  0  0  0  0
 30 32  1  0  0  0  0
 30 33  1  0  0  0  0
 34 39  1  0  0  0  0
 34 35  1  1  0  0  0
 35 36  1  0  0  0  0
 35 37  1  0  0  0  0
 35 38  1  0  0  0  0
 39 44  1  0  0  0  0
 39 40  1  1  0  0  0
 40 41  1  0  0  0  0
 40 42  1  0  0  0  0
 40 43  1  0  0  0  0
 44 45  1  6  0  0  0
 45 46  1  0  0  0  0
 45 47  1  0  0  0  0
 45 48  1  0  0  0  0
M  END
$$$$
