
  --CCDC--092525    3D                              

 32 34  0  0  0  0  0  0  0  0999 V2000
    0.0146   -0.1400    0.0119 C      0
    1.4479    0.0032   -0.5105 C      0
    2.2439   -1.2194   -0.1616 C      0
    2.7672   -2.0690   -1.0033 C      0
    2.1184    1.2599    0.0742 C      0
    1.8955    1.1965    1.5299 N      0
    2.6338    0.4206    2.1452 N      0
    3.2409   -0.2956    2.9416 N      0
    1.5440    2.5370   -0.5056 C      0
    0.6890    3.3904   -1.3073 C      0
    0.5025    5.0127   -1.5665 C      0
    1.1217    6.2421   -1.0920 C      0
    1.3955    7.7231   -0.9295 C      0
    2.0767    4.5780   -0.1610 Fe     0
    1.8919    5.5242    1.8156 C      0
    1.7971    6.0165    2.8391 O      0
    3.5794    3.7895    1.2393 C      0
    4.3501    3.3771    1.9702 O      0
    4.0941    5.2860   -0.6786 C      0
    5.1386    5.6526   -0.9465 O      0
   -0.5695    0.7503   -0.2119 H      0
    0.0082   -0.2861    1.0900 H      0
   -0.4824   -0.9928   -0.4466 H      0
    1.4115    0.0980   -1.6068 H      0
    2.3999   -1.4174    0.8937 H      0
    2.6420   -1.9219   -2.0710 H      0
    3.3281   -2.9219   -0.6355 H      0
    3.1988    1.2204   -0.1338 H      0
    0.7246    8.3125   -1.5523 H      0
    2.4185    7.9649   -1.2130 H      0
    1.2525    8.0336    0.1045 H      0
    3.7233    0.2444    3.6572 H      0
  1  2  1
  2  3  1
  3  4  2
  2  5  1
  5  6  1
  6  7  2
  7  8  2
  5  9  1
  9 10  2
 10 11  1
 11 12  2
 12 13  1
 12 14  1
  9 14  1
 10 14  1
 11 14  1
 14 15  1
 15 16  3
 14 17  1
 17 18  3
 14 19  1
 19 20  3
  1 21  1
  1 22  1
  1 23  1
  2 24  1
  3 25  1
  4 26  1
  4 27  1
  5 28  1
 13 29  1
 13 30  1
 13 31  1
  8 32  1
M  END
$$$$
