
  --CCDC--092525    3D                              

 53 64  0  0  0  0  0  0  0  0999 V2000
    7.4473    4.0327   -0.9075 H      0
    7.0824    3.9188    0.1115 C      0
    7.9272    4.0185    0.7895 H      0
    6.3836    4.7284    0.3131 H      0
    6.4363    2.6262    0.2862 C      0
    5.8961    1.6308    0.4202 N      0
    4.8479   -0.2252    0.6029 Ru     0
    3.9369    1.4382    1.5978 C      0
    3.4780    2.3505    2.1077 O      0
    3.5713    1.6575   -0.7560 Br     0
    1.5652   -0.0446   -0.7843 Ru     3
    1.3601    1.3046   -2.4346 C      0
    1.2509    2.0230   -3.3133 O      0
    3.1470   -0.0431   -2.2326 N      0
    3.9751    0.0559   -3.0140 C      0
    5.0523    0.2145   -3.9793 C      0
    4.8365    1.0341   -4.6613 H      0
    5.1821   -0.6926   -4.5655 H      0
    5.9915    0.4308   -3.4743 H      0
   -0.3585   -0.1442   -0.3305 C      0
   -0.3132    0.6976   -1.0955 H      0
    0.4740    0.2070    0.9297 C      0
    0.8926    1.1882    1.3410 H      0
    1.5283   -0.8697    1.1151 C      0
    1.4187   -1.8665    0.0094 C      0
    0.1897   -1.4668   -0.8652 C      0
    0.5141   -1.2689   -1.9450 H      0
    2.7453   -2.1209   -0.7821 C      0
    2.7057   -3.6410   -0.5157 C      0
    1.6965   -4.0338   -0.6300 H      0
    3.0353   -3.9339    0.4737 H      0
    3.3681   -4.1650   -1.2031 H      0
    2.6363   -2.5190   -2.2818 C      0
    2.1197   -3.4644   -2.4248 H      0
    3.6314   -2.6311   -2.7076 H      0
    2.0837   -1.8303   -2.9133 H      0
    4.1939   -2.0574   -0.1513 C      0
    5.6150   -1.7268   -0.5649 C      0
    5.5934   -1.2656   -1.6090 H      0
    6.4346   -1.4114    0.7161 C      0
    6.8923   -0.3712    0.6861 H      0
    5.4908   -1.6022    1.8889 C      0
    5.4602   -0.6072    2.4544 H      0
    4.0787   -1.9227    1.3255 C      0
    2.9244   -0.9952    1.8220 C      0
    2.4067   -2.2309    2.5919 C      0
    1.4558   -2.0319    3.0857 H      0
    3.1362   -2.5744    3.3254 H      0
    2.2235   -3.0866    1.9564 H      0
    2.9951   -0.2948    3.2107 C      0
    3.9943    0.0014    3.5166 H      0
    2.6428   -0.9111    4.0321 H      0
    2.3447    0.5779    3.2315 H      0
  1  2  1
  2  3  1
  2  4  1
  2  5  1
  5  6  3
  6  7  1
  7  8  1
  8  9  3
  7 10  1
 10 11  1
 11 12  1
 12 13  3
 11 14  1
 14 15  3
 15 16  1
 16 17  1
 16 18  1
 16 19  1
 11 20  1
 20 21  1
 20 22  4
 11 22  1
 22 23  1
 22 24  4
 11 24  1
 24 25  4
 11 25  1
 25 26  4
 20 26  4
 11 26  1
 26 27  1
 25 28  1
 28 29  1
 29 30  1
 29 31  1
 29 32  1
 28 33  1
 33 34  1
 33 35  1
 33 36  1
 28 37  1
  7 37  1
 37 38  4
  7 38  1
 38 39  1
 38 40  4
  7 40  1
 40 41  1
 40 42  4
  7 42  1
 42 43  1
 42 44  4
 37 44  4
  7 44  1
 44 45  1
 24 45  1
 45 46  1
 46 47  1
 46 48  1
 46 49  1
 45 50  1
 50 51  1
 50 52  1
 50 53  1
M  CHG  1  11   1
M  END
$$$$
