
  --CCDC--092525    3D                              

 49 54  0  0  0  0  0  0  0  0999 V2000
    4.4428    3.9657    1.6601 H      0
    4.2113    3.0860    1.0689 C      0
    4.1017    1.8392    1.6588 C      0
    4.3553    1.7011    2.7046 H      0
    3.7034    0.7584    0.8796 C      0
    3.1745    0.9409   -0.3856 C      0
    3.7422    2.0293   -1.0350 C      0
    4.1099    3.1597   -0.3099 C      0
    4.3618    4.0805   -0.8255 H      0
    4.0749    1.7863   -2.4764 C      0
    4.1343    2.7436   -3.0088 H      0
    5.0596    1.3242   -2.5880 H      0
    2.7695    0.7765   -3.2018 P      0
    2.0373    1.5947   -4.6513 C      0
    2.7607    1.5020   -5.7622 F      0
    1.9495    2.8962   -4.3980 F      0
    0.7827    1.2394   -4.9162 F      0
    2.9004   -0.7137   -4.2397 C      0
    1.8762   -0.9595   -5.0479 F      0
    2.9723   -1.8123   -3.5221 F      0
    3.9973   -0.7015   -4.9912 F      0
    1.6904   -0.2901   -1.2474 Ir     0
    0.1348    0.9208   -1.7026 C      0
    0.2868    1.9867   -1.4920 H      0
   -0.4245    0.6431   -2.6045 H      0
   -0.1524    0.0659   -0.5021 C      0
    0.3467    0.1411    0.5577 H      0
    0.2046   -1.4874   -0.7222 C      0
    1.2011   -1.7484    0.3934 C      0
    1.7334   -2.6839    0.2892 H      0
    0.6510   -1.8263    1.3288 H      0
    1.8330   -0.9008    0.5072 H      0
    0.5840   -1.8154   -2.1004 C      0
   -0.1503   -1.4986   -2.8513 H      0
    1.0860   -2.7752   -2.2450 H      0
    3.7887   -1.4863   -0.4949 P      0
    5.3760   -1.0708   -1.2957 C      0
    6.3277   -1.9582   -1.0252 F      0
    5.8974    0.0618   -0.8387 F      0
    5.3332   -0.9446   -2.6168 F      0
    3.9134   -3.1733   -1.2014 C      0
    2.7840   -3.8659   -1.2435 F      0
    4.6758   -3.9051   -0.3944 F      0
    4.4817   -3.3362   -2.3902 F      0
    3.9392   -0.6902    1.1394 C      0
    4.9322   -0.8673    1.5707 H      0
    3.2081   -1.0789    1.8589 H      0
    1.5634    1.4151   -2.8902 H      0
    3.6552   -2.4394    0.5220 H      0
  1  2  1
  2  3  4
  3  4  1
  3  5  4
  5  6  4
  6  7  4
  7  8  4
  2  8  4
  8  9  1
  7 10  1
 10 11  1
 10 12  1
 10 13  1
 13 14  1
 14 15  1
 14 16  1
 14 17  1
 13 18  1
 18 19  1
 18 20  1
 18 21  1
 13 22  1
  6 22  1
 22 23  1
 23 24  1
 23 25  1
 23 26  2
 22 26  1
 26 27  1
 26 28  1
 22 28  1
 28 29  1
 29 30  1
 29 31  1
 29 32  1
 28 33  2
 22 33  1
 33 34  1
 33 35  1
 22 36  1
 36 37  1
 37 38  1
 37 39  1
 37 40  1
 36 41  1
 41 42  1
 41 43  1
 41 44  1
 36 45  1
  5 45  1
 45 46  1
 45 47  1
 13 48  1
 36 49  1
M  END
$$$$
