
 OpenBabel09252518483D

 32 35  0  0  0  0  0  0  0  0999 V2000
    0.9678   -0.0388    0.0373 O   0  0  0  0  0  0  0  0  0  0  0  0
    2.1913    0.0012    0.0987 C   0  0  0  0  0  0  0  0  0  0  0  0
    2.8347    1.1633    0.3883 N   0  0  0  0  0  0  0  0  0  0  0  0
    4.2104    1.3181    0.2523 C   0  0  0  0  0  0  0  0  0  0  0  0
    4.7447    2.6033    0.4000 C   0  0  0  0  0  0  0  0  0  0  0  0
    6.0836    2.8298    0.1084 C   0  0  0  0  0  0  0  0  0  0  0  0
    6.8568    1.7864   -0.3869 C   0  0  0  0  0  0  0  0  0  0  0  0
    6.3083    0.5034   -0.5264 C   0  0  0  0  0  0  0  0  0  0  0  0
    4.9962    0.2165   -0.1230 C   0  0  0  0  0  0  0  0  0  0  0  0
    4.3949   -1.1650   -0.0974 C   0  0  0  0  0  0  0  0  0  0  0  0
    3.0408   -1.2238   -0.0602 C   0  0  0  0  0  0  0  0  0  0  0  0
    2.2060   -2.4716   -0.0940 C   0  0  0  0  0  0  0  0  0  0  0  0
    2.9430   -3.7864   -0.2744 C   0  0  0  0  0  0  0  0  0  0  0  0
    4.4370   -3.7095   -0.1657 C   0  0  0  0  0  0  0  0  0  0  0  0
    5.1332   -4.9377   -0.1657 C   0  0  0  0  0  0  0  0  0  0  0  0
    6.5108   -4.9784   -0.0059 C   0  0  0  0  0  0  0  0  0  0  0  0
    7.1968   -3.7940    0.2007 C   0  0  0  0  0  0  0  0  0  0  0  0
    6.5057   -2.5749    0.2146 C   0  0  0  0  0  0  0  0  0  0  0  0
    5.1235   -2.4857   -0.0354 C   0  0  0  0  0  0  0  0  0  0  0  0
    2.2391    1.9662    0.5349 H   0  0  0  0  0  0  0  0  0  0  0  0
    4.1205    3.4328    0.7204 H   0  0  0  0  0  0  0  0  0  0  0  0
    6.5093    3.8228    0.2251 H   0  0  0  0  0  0  0  0  0  0  0  0
    7.8905    1.9671   -0.6725 H   0  0  0  0  0  0  0  0  0  0  0  0
    6.9357   -0.2554   -0.9830 H   0  0  0  0  0  0  0  0  0  0  0  0
    1.6200   -2.5258    0.8336 H   0  0  0  0  0  0  0  0  0  0  0  0
    1.4715   -2.3930   -0.9074 H   0  0  0  0  0  0  0  0  0  0  0  0
    2.5757   -4.4834    0.4922 H   0  0  0  0  0  0  0  0  0  0  0  0
    2.6809   -4.2243   -1.2453 H   0  0  0  0  0  0  0  0  0  0  0  0
    4.5871   -5.8728   -0.2783 H   0  0  0  0  0  0  0  0  0  0  0  0
    7.0371   -5.9285   -0.0110 H   0  0  0  0  0  0  0  0  0  0  0  0
    8.2711   -3.8098    0.3659 H   0  0  0  0  0  0  0  0  0  0  0  0
    7.0954   -1.7005    0.4628 H   0  0  0  0  0  0  0  0  0  0  0  0
  1  2  2  0  0  0  0
  2  3  1  0  0  0  0
  2 11  1  0  0  0  0
  3  4  1  0  0  0  0
  3 20  1  0  0  0  0
  4  5  1  0  0  0  0
  4  9  2  0  0  0  0
  5  6  2  0  0  0  0
  5 21  1  0  0  0  0
  6  7  1  0  0  0  0
  6 22  1  0  0  0  0
  7  8  2  0  0  0  0
  7 23  1  0  0  0  0
  8  9  1  0  0  0  0
  8 24  1  0  0  0  0
  9 10  1  0  0  0  0
 10 11  2  0  0  0  0
 10 19  1  0  0  0  0
 11 12  1  0  0  0  0
 12 13  1  0  0  0  0
 12 25  1  0  0  0  0
 12 26  1  0  0  0  0
 13 14  1  0  0  0  0
 13 27  1  0  0  0  0
 13 28  1  0  0  0  0
 14 15  1  0  0  0  0
 14 19  2  0  0  0  0
 15 16  2  0  0  0  0
 15 29  1  0  0  0  0
 16 17  1  0  0  0  0
 16 30  1  0  0  0  0
 17 18  2  0  0  0  0
 17 31  1  0  0  0  0
 18 19  1  0  0  0  0
 18 32  1  0  0  0  0
M  END
$$$$
