
 OpenBabel09252517313D

 80 95  0  0  0  0  0  0  0  0999 V2000
    0.9253   -0.0658    0.0092 C   0  0  0  0  0  0  0  0  0  0  0  0
    0.4520    0.3870    1.2691 O   0  0  0  0  0  0  0  0  0  0  0  0
    0.7950   -0.3194    2.4522 C   0  0  0  0  0  0  0  0  0  0  0  0
   -0.1463   -0.4411    3.4610 C   0  0  0  0  0  0  0  0  0  0  0  0
    0.4082   -0.7279    4.7308 C   0  0  0  0  0  0  0  0  0  0  0  0
    1.6268   -1.1973    4.9272 C   0  0  0  0  0  0  0  0  0  0  0  0
    2.4897   -1.1103    3.8702 C   0  0  0  0  0  0  0  0  0  0  0  0
    2.0506   -0.7132    2.6303 C   0  0  0  0  0  0  0  0  0  0  0  0
    2.0337   -1.7819    6.2132 N   0  0  0  0  0  0  0  0  0  0  0  0
    0.7076   -1.8838    7.7468 Cu  0  0  0  0  0  0  0  0  0  0  0  0
   -0.6079   -2.6246    7.7144 P   0  0  0  0  0  4  0  0  0  0  0  0
   -1.7768   -1.8562    8.8943 C   0  0  0  0  0  0  0  0  0  0  0  0
   -2.3322   -2.6614    9.8750 C   0  0  0  0  0  0  0  0  0  0  0  0
   -3.4791   -2.1067   10.4906 C   0  0  0  0  0  0  0  0  0  0  0  0
   -3.8118   -0.8296   10.4413 C   0  0  0  0  0  0  0  0  0  0  0  0
   -3.1779   -0.0720    9.4960 C   0  0  0  0  0  0  0  0  0  0  0  0
   -2.1348   -0.5843    8.7629 C   0  0  0  0  0  0  0  0  0  0  0  0
   -1.3140   -2.5457    6.0280 C   0  0  0  0  0  0  0  0  0  0  0  0
   -2.5527   -1.9558    5.8372 C   0  0  0  0  0  0  0  0  0  0  0  0
   -3.1180   -2.2083    4.5649 C   0  0  0  0  0  0  0  0  0  0  0  0
   -2.4397   -2.6352    3.5153 C   0  0  0  0  0  0  0  0  0  0  0  0
   -1.1949   -3.1442    3.7617 C   0  0  0  0  0  0  0  0  0  0  0  0
   -0.6282   -3.0523    5.0100 C   0  0  0  0  0  0  0  0  0  0  0  0
   -0.3716   -4.0772    8.1001 C   0  0  0  0  0  0  0  0  0  0  0  0
   -0.4385   -4.3532    9.5459 C   0  0  0  0  0  3  0  0  0  0  0  0
    1.9092   -3.7251    8.5996 C   0  0  0  0  0  0  0  0  0  0  0  0
    0.6094   -4.8041    8.5977 C   0  0  0  0  0  0  0  0  0  0  0  0
    0.3178   -5.4399   11.1364 C   0  0  0  0  0  0  0  0  0  0  0  0
    0.6901   -3.5819   10.2788 Fe  0  0  0  0  0  0  0  0  0  0  0  0
    2.0140   -4.6244   11.8426 C   0  0  0  0  0  0  0  0  0  0  0  0
    2.7410   -4.4973   10.5636 C   0  0  0  0  0  3  0  0  0  0  0  0
    1.9620   -3.8884    9.6515 C   0  0  0  0  0  0  0  0  0  0  0  0
    0.4097   -2.1198   10.2484 C   0  0  0  0  0  0  0  0  0  0  0  0
    0.7755   -4.0884   11.6978 C   0  0  0  0  0  0  0  0  0  0  0  0
    0.8872   -1.2164    9.1230 P   0  0  0  0  0  4  0  0  0  0  0  0
    2.6697   -0.8850    9.3710 C   0  0  0  0  0  0  0  0  0  0  0  0
    3.3256   -1.4628   10.4455 C   0  0  0  0  0  0  0  0  0  0  0  0
    4.6030   -0.9107   10.7017 C   0  0  0  0  0  0  0  0  0  0  0  0
    5.2939   -0.1891    9.8380 C   0  0  0  0  0  0  0  0  0  0  0  0
    4.6041    0.2964    8.7619 C   0  0  0  0  0  0  0  0  0  0  0  0
    3.3099   -0.0947    8.5173 C   0  0  0  0  0  0  0  0  0  0  0  0
   -0.0770    0.3386    9.1596 C   0  0  0  0  0  0  0  0  0  0  0  0
    0.5678    1.5456    9.3737 C   0  0  0  0  0  0  0  0  0  0  0  0
   -0.3067    2.6189    9.6657 C   0  0  0  0  0  0  0  0  0  0  0  0
   -1.6037    2.6171    9.4170 C   0  0  0  0  0  0  0  0  0  0  0  0
   -2.1692    1.4022    9.1454 C   0  0  0  0  0  0  0  0  0  0  0  0
   -1.3909    0.2827    8.9757 C   0  0  0  0  0  0  0  0  0  0  0  0
    3.4009   -2.2928    6.3885 C   0  0  0  0  0  0  0  0  0  0  0  0
    4.2311   -2.2290    5.4284 O   0  0  0  0  0  0  0  0  0  0  0  0
    3.8216   -2.8973    7.7182 C   0  0  0  0  0  0  0  0  0  0  0  0
    3.6929   -1.9872    8.6795 F   0  0  0  0  0  0  0  0  0  0  0  0
    3.0495   -3.9448    7.9931 F   0  0  0  0  0  0  0  0  0  0  0  0
    5.0905   -3.2889    7.6455 F   0  0  0  0  0  0  0  0  0  0  0  0
    0.5686    0.5857   -0.7610 H   0  0  0  0  0  0  0  0  0  0  0  0
    0.5686   -1.0586   -0.1699 H   0  0  0  0  0  0  0  0  0  0  0  0
    1.9953   -0.0658    0.0092 H   0  0  0  0  0  0  0  0  0  0  0  0
   -1.1973   -0.3285    3.2951 H   0  0  0  0  0  0  0  0  0  0  0  0
   -0.2024   -0.5522    5.5918 H   0  0  0  0  0  0  0  0  0  0  0  0
    3.5219   -1.3550    4.0106 H   0  0  0  0  0  0  0  0  0  0  0  0
    2.7264   -0.7213    1.8009 H   0  0  0  0  0  0  0  0  0  0  0  0
   -1.9305   -3.6163   10.1427 H   0  0  0  0  0  0  0  0  0  0  0  0
   -4.1215   -2.7678   11.0337 H   0  0  0  0  0  0  0  0  0  0  0  0
   -4.5384   -0.4103   11.1056 H   0  0  0  0  0  0  0  0  0  0  0  0
   -3.4988    0.9342    9.3245 H   0  0  0  0  0  0  0  0  0  0  0  0
   -1.6061    0.0474    8.0800 H   0  0  0  0  0  0  0  0  0  0  0  0
   -3.0380   -1.3630    6.5841 H   0  0  0  0  0  0  0  0  0  0  0  0
   -4.1681   -2.0417    4.4448 H   0  0  0  0  0  0  0  0  0  0  0  0
   -2.8427   -2.5855    2.5253 H   0  0  0  0  0  0  0  0  0  0  0  0
   -0.6541   -3.6209    2.9709 H   0  0  0  0  0  0  0  0  0  0  0  0
    0.3747   -3.3922    5.1633 H   0  0  0  0  0  0  0  0  0  0  0  0
    2.9045   -2.2548   11.0289 H   0  0  0  0  0  0  0  0  0  0  0  0
    5.0394   -1.0903   11.6620 H   0  0  0  0  0  0  0  0  0  0  0  0
    6.3374    0.0051    9.9731 H   0  0  0  0  0  0  0  0  0  0  0  0
    5.0791    0.9908    8.1008 H   0  0  0  0  0  0  0  0  0  0  0  0
    2.8132    0.2408    7.6309 H   0  0  0  0  0  0  0  0  0  0  0  0
    1.6309    1.6564    9.3228 H   0  0  0  0  0  0  0  0  0  0  0  0
    0.1119    3.4928   10.1196 H   0  0  0  0  0  0  0  0  0  0  0  0
   -2.1810    3.5180    9.4274 H   0  0  0  0  0  0  0  0  0  0  0  0
   -3.2331    1.3222    9.0639 H   0  0  0  0  0  0  0  0  0  0  0  0
   -1.8477   -0.6426    8.6928 H   0  0  0  0  0  0  0  0  0  0  0  0
  1  2  1  0  0  0  0
  1 54  1  0  0  0  0
  1 55  1  0  0  0  0
  1 56  1  0  0  0  0
  2  3  1  0  0  0  0
  3  4  1  0  0  0  0
  3  8  2  0  0  0  0
  4  5  2  0  0  0  0
  4 57  1  0  0  0  0
  5  6  1  0  0  0  0
  5 58  1  0  0  0  0
  6  7  2  0  0  0  0
  6  9  1  0  0  0  0
  7  8  1  0  0  0  0
  7 59  1  0  0  0  0
  8 60  1  0  0  0  0
  9 10  1  0  0  0  0
  9 48  1  0  0  0  0
 10 11  1  0  0  0  0
 10 35  1  0  0  0  0
 11 12  1  0  0  0  0
 11 18  1  0  0  0  0
 11 24  1  0  0  0  0
 12 13  1  0  0  0  0
 12 17  2  0  0  0  0
 13 14  2  0  0  0  0
 13 61  1  0  0  0  0
 14 15  1  0  0  0  0
 14 62  1  0  0  0  0
 15 16  2  0  0  0  0
 15 63  1  0  0  0  0
 16 17  1  0  0  0  0
 16 64  1  0  0  0  0
 17 65  1  0  0  0  0
 18 19  1  0  0  0  0
 18 23  2  0  0  0  0
 19 20  2  0  0  0  0
 19 66  1  0  0  0  0
 20 21  1  0  0  0  0
 20 67  1  0  0  0  0
 21 22  2  0  0  0  0
 21 68  1  0  0  0  0
 22 23  1  0  0  0  0
 22 69  1  0  0  0  0
 23 70  1  0  0  0  0
 24 25  1  0  0  0  0
 24 28  2  0  0  0  0
 24 29  1  0  0  0  0
 25 26  1  0  0  0  0
 25 29  1  0  0  0  0
 26 27  2  0  0  0  0
 26 29  1  0  0  0  0
 27 28  1  0  0  0  0
 27 29  1  0  0  0  0
 28 29  1  0  0  0  0
 29 30  1  0  0  0  0
 29 31  1  0  0  0  0
 29 32  1  0  0  0  0
 29 33  1  0  0  0  0
 29 34  1  0  0  0  0
 30 31  1  0  0  0  0
 30 34  2  0  0  0  0
 31 32  1  0  0  0  0
 32 33  2  0  0  0  0
 33 34  1  0  0  0  0
 33 35  1  0  0  0  0
 35 36  1  0  0  0  0
 35 42  1  0  0  0  0
 36 37  1  0  0  0  0
 36 41  2  0  0  0  0
 37 38  2  0  0  0  0
 37 71  1  0  0  0  0
 38 39  1  0  0  0  0
 38 72  1  0  0  0  0
 39 40  2  0  0  0  0
 39 73  1  0  0  0  0
 40 41  1  0  0  0  0
 40 74  1  0  0  0  0
 41 75  1  0  0  0  0
 42 43  1  0  0  0  0
 42 47  2  0  0  0  0
 43 44  2  0  0  0  0
 43 76  1  0  0  0  0
 44 45  1  0  0  0  0
 44 77  1  0  0  0  0
 45 46  2  0  0  0  0
 45 78  1  0  0  0  0
 46 47  1  0  0  0  0
 46 79  1  0  0  0  0
 47 80  1  0  0  0  0
 48 49  2  0  0  0  0
 48 50  1  0  0  0  0
 50 51  1  0  0  0  0
 50 52  1  0  0  0  0
 50 53  1  0  0  0  0
M  END
$$$$
