
     RDKit          3D

 28 28  0  0  0  0  0  0  0  0999 V2000
   -0.5434    0.1076   -0.5664 C   0  0  0  0  0  0  0  0  0  0  0  0
   -1.9857   -0.2036   -0.5443 C   0  0  0  0  0  0  0  0  0  0  0  0
   -2.8590    0.3816   -1.4103 C   0  0  0  0  0  0  0  0  0  0  0  0
   -2.4474    1.3286   -2.3953 C   0  0  0  0  0  0  0  0  0  0  0  0
   -2.0977    2.0940   -3.1948 N   0  0  0  0  0  0  0  0  0  0  0  0
   -4.2561    0.0918   -1.3761 C   0  0  0  0  0  0  0  0  0  0  0  0
   -5.3901   -0.1520   -1.3358 N   0  0  0  0  0  0  0  0  0  0  0  0
   -2.4592   -1.2334    0.4816 C   0  0  0  0  0  0  0  0  0  0  0  0
   -2.7149   -0.6160    1.8516 C   0  0  0  0  0  0  0  0  0  0  0  0
    0.4060   -0.3923    0.2440 C   0  0  0  0  0  0  0  0  0  0  0  0
    1.8257   -0.0147    0.1565 C   0  0  0  0  0  0  0  0  0  0  0  0
    2.5469    0.1832    1.3436 C   0  0  0  0  0  0  0  0  0  0  0  0
    3.9030    0.5158    1.3018 C   0  0  0  0  0  0  0  0  0  0  0  0
    4.5406    0.6394    0.0739 C   0  0  0  0  0  0  0  0  0  0  0  0
    5.8411    0.9562    0.0344 F   0  0  0  0  0  0  0  0  0  0  0  0
    3.8493    0.4326   -1.1131 C   0  0  0  0  0  0  0  0  0  0  0  0
    2.4929    0.1002   -1.0726 C   0  0  0  0  0  0  0  0  0  0  0  0
   -0.2141    0.8348   -1.3101 H   0  0  0  0  0  0  0  0  0  0  0  0
   -1.7398   -2.0565    0.5661 H   0  0  0  0  0  0  0  0  0  0  0  0
   -3.3796   -1.7286    0.1502 H   0  0  0  0  0  0  0  0  0  0  0  0
   -3.4885    0.1572    1.7981 H   0  0  0  0  0  0  0  0  0  0  0  0
   -3.0573   -1.3853    2.5512 H   0  0  0  0  0  0  0  0  0  0  0  0
   -1.8109   -0.1624    2.2694 H   0  0  0  0  0  0  0  0  0  0  0  0
    0.1782   -1.0950    1.0397 H   0  0  0  0  0  0  0  0  0  0  0  0
    2.0573    0.0894    2.3105 H   0  0  0  0  0  0  0  0  0  0  0  0
    4.4635    0.6776    2.2169 H   0  0  0  0  0  0  0  0  0  0  0  0
    4.3693    0.5262   -2.0612 H   0  0  0  0  0  0  0  0  0  0  0  0
    1.9698   -0.0766   -2.0096 H   0  0  0  0  0  0  0  0  0  0  0  0
  1  2  1  0
  2  3  2  0
  3  4  1  0
  4  5  3  0
  3  6  1  0
  6  7  3  0
  2  8  1  0
  8  9  1  0
  1 10  2  0
 10 11  1  0
 11 12  2  0
 12 13  1  0
 13 14  2  0
 14 15  1  0
 14 16  1  0
 16 17  2  0
 17 11  1  0
  1 18  1  0
  8 19  1  0
  8 20  1  0
  9 21  1  0
  9 22  1  0
  9 23  1  0
 10 24  1  0
 12 25  1  0
 13 26  1  0
 16 27  1  0
 17 28  1  0
M  END
