
  --CCDC--092525    3D                              

 53 64  0  0  0  0  0  0  0  0999 V2000
    1.1218    3.8838   -1.2642 C      0
    2.3517    3.1722   -1.5639 C      0
    3.2815    2.5676   -1.8148 N      0
    4.9664    1.3072   -2.1889 Ru     3
    3.8800    1.0529    0.2133 Br     0
    3.0650   -1.4742    0.2168 Ru     0
    3.6710   -0.8481    2.1744 C      0
    3.9931   -0.5153    3.2150 O      0
    1.6902   -0.0912    1.0928 N      0
    1.0255    0.6849    1.6095 C      0
    0.2364    1.7352    2.2461 C      0
    2.3192   -3.3402    0.3709 C      0
    3.9859   -3.2650    0.3040 C      0
    4.4274   -2.3213   -0.9964 C      0
    5.7515   -1.6041   -1.1935 C      0
    6.4451   -1.1652    0.0974 C      0
    6.6903   -2.6948   -1.7058 C      0
    5.7081   -0.5674   -2.3105 C      0
    6.8252    0.6307   -2.5884 C      0
    6.1963    1.6585   -3.7411 C      0
    4.6932    1.0837   -4.1741 C      0
    4.3709   -0.2808   -3.2664 C      0
    3.0039   -0.8544   -2.9048 C      0
    2.6263   -1.6212   -4.1658 C      0
    1.8635    0.1426   -2.7295 C      0
    3.0266   -1.8713   -1.7679 C      0
    1.7266   -2.4770   -0.9195 C      0
    5.4584    3.0433   -1.0379 C      0
    5.7207    3.9694   -0.4232 O      0
    1.2751    4.9616   -1.2908 H      0
    0.7588    3.6087   -0.2762 H      0
    0.3578    3.6210   -1.9942 H      0
   -0.2924    2.3285    1.5045 H      0
    0.8858    2.3973    2.8094 H      0
   -0.4922    1.3224    2.9354 H      0
    1.8017   -3.2978    1.3415 H      0
    4.5529   -3.1879    1.2433 H      0
    7.2324   -0.4420   -0.1140 H      0
    6.9102   -2.0254    0.5733 H      0
    5.7706   -0.7203    0.8193 H      0
    6.3872   -3.0042   -2.7067 H      0
    6.6509   -3.5632   -1.0483 H      0
    7.7213   -2.3414   -1.7537 H      0
    7.3799    1.0525   -1.7349 H      0
    6.3590    2.7448   -3.6491 H      0
    3.8865    1.8060   -4.3716 H      0
    1.6467   -2.0777   -4.0614 H      0
    3.3594   -2.4022   -4.3531 H      0
    2.6137   -0.9586   -5.0268 H      0
    1.7062    0.4040   -1.6842 H      0
    0.9376   -0.2887   -3.1063 H      0
    2.0706    1.0468   -3.2964 H      0
    0.8203   -1.8618   -0.7897 H      0
  1  2  1
  2  3  3
  3  4  1
  4  5  1
  5  6  1
  6  7  1
  7  8  3
  6  9  1
  9 10  3
 10 11  1
  6 12  1
 12 13  1
  6 13  1
 13 14  1
  6 14  1
 14 15  1
 15 16  1
 15 17  1
 15 18  1
  4 18  1
 18 19  1
  4 19  1
 19 20  1
  4 20  1
 20 21  1
  4 21  1
 21 22  1
  4 22  1
 18 22  1
 22 23  1
 23 24  1
 23 25  1
 23 26  1
  6 26  1
 14 26  1
 26 27  1
  6 27  1
 12 27  1
  4 28  1
 28 29  3
  1 30  1
  1 31  1
  1 32  1
 11 33  1
 11 34  1
 11 35  1
 12 36  1
 13 37  1
 16 38  1
 16 39  1
 16 40  1
 17 41  1
 17 42  1
 17 43  1
 19 44  1
 20 45  1
 21 46  1
 24 47  1
 24 48  1
 24 49  1
 25 50  1
 25 51  1
 25 52  1
 27 53  1
M  CHG  1   4   1
M  END
$$$$
