
 OpenBabel09252517243D

 43 45  0  0  0  0  0  0  0  0999 V2000
    0.9318   -0.0642   -0.0351 C   0  0  0  0  0  0  0  0  0  0  0  0
    0.4251   -1.4222   -0.4928 C   0  0  0  0  0  0  0  0  0  0  0  0
    0.9151   -2.4622    0.4233 N   0  0  0  0  0  4  0  0  0  0  0  0
    0.2251   -2.0773    2.3366 Pt  0  0  0  0  0  0  0  0  0  0  0  0
    1.0448   -2.9238    3.2845 N   0  0  0  0  0  4  0  0  0  0  0  0
    1.7788   -1.6213    4.3483 C   0  0  0  0  0  0  0  0  0  0  0  0
    1.5315   -1.7568    5.8420 C   0  0  0  0  0  0  0  0  0  0  0  0
    1.0323   -0.2142    3.5526 C   0  0  0  0  0  0  0  0  0  0  0  0
    1.1183    1.0486    3.7937 C   0  0  0  0  0  0  0  0  0  0  0  0
    0.4244    1.9756    3.0033 C   0  0  0  0  0  0  0  0  0  0  0  0
   -0.3759    1.4984    1.9524 C   0  0  0  0  0  0  0  0  0  0  0  0
   -0.4580    0.1897    1.7116 C   0  0  0  0  0  0  0  0  0  0  0  0
    0.2556   -0.7468    2.5145 C   0  0  0  0  0  0  0  0  0  0  0  0
   -1.7411   -2.6144    2.6977 N   0  0  0  0  0  0  0  0  0  0  0  0
   -2.2717   -2.4098    3.8841 C   0  0  0  0  0  0  0  0  0  0  0  0
   -2.7841   -2.2122    5.0302 O   0  0  0  0  0  0  0  0  0  0  0  0
   -1.0949   -1.4222   -0.4928 C   0  0  0  0  0  0  0  0  0  0  0  0
   -1.8186   -2.6449   -0.4201 C   0  0  0  0  0  0  0  0  0  0  0  0
   -3.1909   -2.6521   -0.7189 C   0  0  0  0  0  0  0  0  0  0  0  0
   -3.8471   -1.5315   -0.7907 C   0  0  0  0  0  0  0  0  0  0  0  0
   -3.1891   -0.3161   -0.5598 C   0  0  0  0  0  0  0  0  0  0  0  0
   -1.7735   -0.2756   -0.5609 C   0  0  0  0  0  0  0  0  0  0  0  0
    0.5751    0.1348    0.9539 H   0  0  0  0  0  0  0  0  0  0  0  0
    0.5751    0.6929   -0.7018 H   0  0  0  0  0  0  0  0  0  0  0  0
    2.0018   -0.0642   -0.0351 H   0  0  0  0  0  0  0  0  0  0  0  0
    0.7818   -1.6211   -1.4818 H   0  0  0  0  0  0  0  0  0  0  0  0
    0.5751   -3.3735    0.1161 H   0  0  0  0  0  0  0  0  0  0  0  0
    1.9351   -2.4622    0.4233 H   0  0  0  0  0  0  0  0  0  0  0  0
    0.5129   -3.6336    3.7881 H   0  0  0  0  0  0  0  0  0  0  0  0
    1.7621   -3.4548    2.7906 H   0  0  0  0  0  0  0  0  0  0  0  0
    2.8470   -1.6024    4.2893 H   0  0  0  0  0  0  0  0  0  0  0  0
    1.9823   -2.6597    6.1977 H   0  0  0  0  0  0  0  0  0  0  0  0
    1.9600   -0.9194    6.3518 H   0  0  0  0  0  0  0  0  0  0  0  0
    0.4782   -1.7868    6.0278 H   0  0  0  0  0  0  0  0  0  0  0  0
    1.7252    1.3930    4.6048 H   0  0  0  0  0  0  0  0  0  0  0  0
    0.5030    3.0250    3.1967 H   0  0  0  0  0  0  0  0  0  0  0  0
   -0.9218    2.1878    1.3428 H   0  0  0  0  0  0  0  0  0  0  0  0
   -1.0672   -0.1619    0.9053 H   0  0  0  0  0  0  0  0  0  0  0  0
   -1.3221   -3.5505   -0.1404 H   0  0  0  0  0  0  0  0  0  0  0  0
   -3.6967   -3.5798   -0.8876 H   0  0  0  0  0  0  0  0  0  0  0  0
   -4.8908   -1.5376   -1.0265 H   0  0  0  0  0  0  0  0  0  0  0  0
   -3.7528    0.5760   -0.3835 H   0  0  0  0  0  0  0  0  0  0  0  0
   -1.2566    0.6596   -0.6156 H   0  0  0  0  0  0  0  0  0  0  0  0
  1  2  1  0  0  0  0
  1 23  1  0  0  0  0
  1 24  1  0  0  0  0
  1 25  1  0  0  0  0
  2  3  1  0  0  0  0
  2 17  1  0  0  0  0
  2 26  1  0  0  0  0
  3  4  1  0  0  0  0
  3 27  1  0  0  0  0
  3 28  1  0  0  0  0
  4  5  1  0  0  0  0
  4 13  1  0  0  0  0
  4 14  1  0  0  0  0
  5  6  1  0  0  0  0
  5 29  1  0  0  0  0
  5 30  1  0  0  0  0
  6  7  1  0  0  0  0
  6  8  1  0  0  0  0
  6 31  1  0  0  0  0
  7 32  1  0  0  0  0
  7 33  1  0  0  0  0
  7 34  1  0  0  0  0
  8  9  1  0  0  0  0
  8 13  2  0  0  0  0
  9 10  2  0  0  0  0
  9 35  1  0  0  0  0
 10 11  1  0  0  0  0
 10 36  1  0  0  0  0
 11 12  2  0  0  0  0
 11 37  1  0  0  0  0
 12 13  1  0  0  0  0
 12 38  1  0  0  0  0
 14 15  2  0  0  0  0
 15 16  2  0  0  0  0
 17 18  1  0  0  0  0
 17 22  2  0  0  0  0
 18 19  2  0  0  0  0
 18 39  1  0  0  0  0
 19 20  1  0  0  0  0
 19 40  1  0  0  0  0
 20 21  2  0  0  0  0
 20 41  1  0  0  0  0
 21 22  1  0  0  0  0
 21 42  1  0  0  0  0
 22 43  1  0  0  0  0
M  END
$$$$
