
 OpenBabel09252515363D

 71 77  0  0  0  0  0  0  0  0999 V2000
    1.0260    0.0607   -0.0751 C   0  0  0  0  0  0  0  0  0  0  0  0
    0.4226    1.7661   -0.0128 S   0  0  0  0  0  0  0  0  0  0  0  0
   -1.3874    1.7661   -0.0128 C   0  0  0  0  0  0  0  0  0  0  0  0
    0.9328    2.4415    1.2623 O   0  0  0  0  0  0  0  0  0  0  0  0
    0.2998    4.9330    1.7681 U   0  3  0  0  0  0  0  0  0  0  0  0
   -0.1756    5.3787    4.3058 O   0  0  0  0  0  0  0  0  0  0  0  0
   -0.9851    4.4767    5.0456 C   0  0  0  0  0  0  0  0  0  0  0  0
   -1.2157    4.6929    6.2766 O   0  0  0  0  0  0  0  0  0  0  0  0
    2.9756    1.1743   -2.7848 C   0  0  0  0  0  0  0  0  0  0  0  0
    3.1524    2.4830   -2.1391 N   0  0  0  0  0  0  0  0  0  0  0  0
    4.2976    2.7614   -1.1648 C   0  0  0  0  0  0  0  0  0  0  0  0
    3.9981    2.1022    0.1826 C   0  0  0  0  0  0  0  0  0  0  0  0
    4.0417    3.1555    1.2904 N   0  0  0  0  0  4  0  0  0  0  0  0
    2.6462    3.7499    1.4913 C   0  0  0  0  0  0  0  0  0  0  0  0
    2.7034    5.2673    1.2974 C   0  0  0  0  0  0  0  0  0  0  0  0
    1.2882    5.8242    1.1375 N   0  0  0  0  0  0  0  0  0  0  0  0
    0.9495    6.0571   -0.3354 C   0  0  0  0  0  0  0  0  0  0  0  0
    1.2929    4.8166   -1.1609 C   0  0  0  0  0  0  0  0  0  0  0  0
    1.2187    5.1611   -2.6503 N   0  0  0  0  0  0  0  0  0  0  0  0
    1.6339    3.9466   -3.4826 C   0  0  0  0  0  0  0  0  0  0  0  0
    3.0926    3.5934   -3.1898 C   0  0  0  0  0  0  0  0  0  0  0  0
    0.2645    5.1925   -1.8401 C   0  0  0  0  0  0  0  0  0  0  0  0
   -0.6484    6.3103   -1.3632 C   0  0  0  0  0  0  0  0  0  0  0  0
   -1.2150    7.0721   -2.2081 O   0  0  0  0  0  0  0  0  0  0  0  0
   -0.8682    6.5035    0.0263 O   0  0  0  0  0  0  0  0  0  0  0  0
    1.1437    7.1189    1.9166 C   0  0  0  0  0  0  0  0  0  0  0  0
    0.2190    6.8732    2.8646 C   0  0  0  0  0  0  0  0  0  0  0  0
   -0.1523    7.7201    3.7364 O   0  0  0  0  0  0  0  0  0  0  0  0
   -0.2604    5.6276    2.7750 O   0  0  0  0  0  0  0  0  0  0  0  0
    1.8223    6.9382    1.0428 O   0  0  0  0  0  0  0  0  0  0  0  0
    1.4019    8.3739    1.3654 S   0  0  0  0  0  0  0  0  0  0  0  0
    1.2467    8.5689    3.1581 C   0  0  0  0  0  0  0  0  0  0  0  0
    2.6518    9.5237    0.7394 C   0  0  0  0  0  0  0  0  0  0  0  0
    0.6693   -0.4115   -0.9665 H   0  0  0  0  0  0  0  0  0  0  0  0
    0.6693   -0.4752    0.7796 H   0  0  0  0  0  0  0  0  0  0  0  0
    2.0960    0.0607   -0.0751 H   0  0  0  0  0  0  0  0  0  0  0  0
   -1.7440    1.2301    0.8419 H   0  0  0  0  0  0  0  0  0  0  0  0
   -1.7440    2.7742    0.0240 H   0  0  0  0  0  0  0  0  0  0  0  0
   -1.7440    1.2939   -0.9043 H   0  0  0  0  0  0  0  0  0  0  0  0
    2.0162    1.1364   -3.2571 H   0  0  0  0  0  0  0  0  0  0  0  0
    3.7406    1.0327   -3.5193 H   0  0  0  0  0  0  0  0  0  0  0  0
    3.7751    1.7399   -1.8222 H   0  0  0  0  0  0  0  0  0  0  0  0
    5.2067    2.3605   -1.5617 H   0  0  0  0  0  0  0  0  0  0  0  0
    4.4006    3.8178   -1.0291 H   0  0  0  0  0  0  0  0  0  0  0  0
    4.7314    1.3484    0.3801 H   0  0  0  0  0  0  0  0  0  0  0  0
    3.0256    1.6569    0.1528 H   0  0  0  0  0  0  0  0  0  0  0  0
    5.0266    3.0879    1.5468 H   0  0  0  0  0  0  0  0  0  0  0  0
    2.3048    3.5301    2.4812 H   0  0  0  0  0  0  0  0  0  0  0  0
    1.9716    3.3246    0.7779 H   0  0  0  0  0  0  0  0  0  0  0  0
    3.2713    5.4894    0.4182 H   0  0  0  0  0  0  0  0  0  0  0  0
    3.1675    5.7169    2.1503 H   0  0  0  0  0  0  0  0  0  0  0  0
    1.8408    5.1364    1.6492 H   0  0  0  0  0  0  0  0  0  0  0  0
    1.5214    6.8858   -0.6976 H   0  0  0  0  0  0  0  0  0  0  0  0
   -0.0960    6.2650   -0.4287 H   0  0  0  0  0  0  0  0  0  0  0  0
    0.5960    4.0355   -0.9393 H   0  0  0  0  0  0  0  0  0  0  0  0
    2.2825    4.4895   -0.9189 H   0  0  0  0  0  0  0  0  0  0  0  0
    1.1516    5.7771   -3.4605 H   0  0  0  0  0  0  0  0  0  0  0  0
    1.5275    4.1771   -4.5221 H   0  0  0  0  0  0  0  0  0  0  0  0
    1.0096    3.1143   -3.2327 H   0  0  0  0  0  0  0  0  0  0  0  0
    3.5999    4.4597   -2.8197 H   0  0  0  0  0  0  0  0  0  0  0  0
    3.5649    3.2578   -4.0894 H   0  0  0  0  0  0  0  0  0  0  0  0
    1.0769    5.6090   -2.3981 H   0  0  0  0  0  0  0  0  0  0  0  0
    0.6482    4.6603   -0.9948 H   0  0  0  0  0  0  0  0  0  0  0  0
    2.0746    7.4281    2.3442 H   0  0  0  0  0  0  0  0  0  0  0  0
    0.8165    7.9076    1.2719 H   0  0  0  0  0  0  0  0  0  0  0  0
    2.1878    8.3600    3.6224 H   0  0  0  0  0  0  0  0  0  0  0  0
    0.9528    9.5727    3.3836 H   0  0  0  0  0  0  0  0  0  0  0  0
    0.5078    7.8892    3.5282 H   0  0  0  0  0  0  0  0  0  0  0  0
    3.5929    9.3148    1.2036 H   0  0  0  0  0  0  0  0  0  0  0  0
    2.7435    9.4084   -0.3204 H   0  0  0  0  0  0  0  0  0  0  0  0
    2.3579   10.5275    0.9649 H   0  0  0  0  0  0  0  0  0  0  0  0
  1  2  1  0  0  0  0
  1 34  1  0  0  0  0
  1 35  1  0  0  0  0
  1 36  1  0  0  0  0
  2  3  1  0  0  0  0
  2  4  2  0  0  0  0
  3 37  1  0  0  0  0
  3 38  1  0  0  0  0
  3 39  1  0  0  0  0
  4  5  1  0  0  0  0
  5  6  1  0  0  0  0
  5 10  1  0  0  0  0
  5 13  1  0  0  0  0
  5 16  1  0  0  0  0
  5 19  1  0  0  0  0
  5 25  1  0  0  0  0
  5 29  1  0  0  0  0
  5 30  1  0  0  0  0
  6  7  1  0  0  0  0
  7  8  2  0  0  0  0
  7  9  1  0  0  0  0
  9 10  1  0  0  0  0
  9 40  1  0  0  0  0
  9 41  1  0  0  0  0
 10 11  1  0  0  0  0
 10 21  1  0  0  0  0
 10 42  1  0  0  0  0
 11 12  1  0  0  0  0
 11 43  1  0  0  0  0
 11 44  1  0  0  0  0
 12 13  1  0  0  0  0
 12 45  1  0  0  0  0
 12 46  1  0  0  0  0
 13 14  1  0  0  0  0
 13 47  1  0  0  0  0
 14 15  1  0  0  0  0
 14 48  1  0  0  0  0
 14 49  1  0  0  0  0
 15 16  1  0  0  0  0
 15 50  1  0  0  0  0
 15 51  1  0  0  0  0
 16 17  1  0  0  0  0
 16 26  1  0  0  0  0
 16 52  1  0  0  0  0
 17 18  1  0  0  0  0
 17 53  1  0  0  0  0
 17 54  1  0  0  0  0
 18 19  1  0  0  0  0
 18 55  1  0  0  0  0
 18 56  1  0  0  0  0
 19 20  1  0  0  0  0
 19 22  1  0  0  0  0
 19 57  1  0  0  0  0
 20 21  1  0  0  0  0
 20 58  1  0  0  0  0
 20 59  1  0  0  0  0
 21 60  1  0  0  0  0
 21 61  1  0  0  0  0
 22 23  1  0  0  0  0
 22 62  1  0  0  0  0
 22 63  1  0  0  0  0
 23 24  2  0  0  0  0
 23 25  1  0  0  0  0
 26 27  1  0  0  0  0
 26 64  1  0  0  0  0
 26 65  1  0  0  0  0
 27 28  2  0  0  0  0
 27 29  1  0  0  0  0
 30 31  2  0  0  0  0
 31 32  1  0  0  0  0
 31 33  1  0  0  0  0
 32 66  1  0  0  0  0
 32 67  1  0  0  0  0
 32 68  1  0  0  0  0
 33 69  1  0  0  0  0
 33 70  1  0  0  0  0
 33 71  1  0  0  0  0
M  CHG  1   5   1
M  END
$$$$
