
     RDKit          3D

 44 43  0  0  0  0  0  0  0  0999 V2000
   -2.5036   -1.3224   -0.8183 C   0  0  0  0  0  0  0  0  0  0  0  0
   -1.4490    0.0603   -0.7439 P   0  0  0  0  0  5  0  0  0  0  0  0
   -2.7010    1.1225    0.1338 C   0  0  0  0  0  0  0  0  0  0  0  0
   -1.2269    1.2515   -1.9847 C   0  0  0  0  0  0  0  0  0  0  0  0
   -0.0291   -0.0644    0.5416 Pt  0  0  0  0  0  6  0  0  0  0  0  0
   -0.1871    1.7366    0.8382 N   0  0  0  0  0  0  0  0  0  0  0  0
   -0.2919    2.1810    1.9644 N   0  0  0  0  0  4  0  0  0  0  0  0
   -0.2239    2.8012    3.0038 N   0  0  0  0  0  2  0  0  0  0  0  0
    0.1107   -1.9309    0.4991 C   0  0  0  0  0  0  0  0  0  0  0  0
   -1.2970   -0.4365    1.9429 C   0  0  0  0  0  0  0  0  0  0  0  0
    1.1983    0.0281    2.0347 C   0  0  0  0  0  0  0  0  0  0  0  0
    1.4692    0.0858   -0.6623 P   0  0  0  0  0  5  0  0  0  0  0  0
    2.4331    1.5460   -0.3659 C   0  0  0  0  0  0  0  0  0  0  0  0
    2.7813   -1.0683   -0.0276 C   0  0  0  0  0  0  0  0  0  0  0  0
    1.3549   -0.7158   -2.1686 C   0  0  0  0  0  0  0  0  0  0  0  0
   -3.0999   -1.2784   -1.7820 H   0  0  0  0  0  0  0  0  0  0  0  0
   -2.1572   -2.3647   -0.7773 H   0  0  0  0  0  0  0  0  0  0  0  0
   -3.3595   -1.3994   -0.0740 H   0  0  0  0  0  0  0  0  0  0  0  0
   -0.6720   -0.6638   -1.4980 H   0  0  0  0  0  0  0  0  0  0  0  0
   -2.0997    1.9831    0.4265 H   0  0  0  0  0  0  0  0  0  0  0  0
   -3.5044    1.2437   -0.5717 H   0  0  0  0  0  0  0  0  0  0  0  0
   -2.9512    0.5530    1.0012 H   0  0  0  0  0  0  0  0  0  0  0  0
   -0.9712    2.2412   -1.4874 H   0  0  0  0  0  0  0  0  0  0  0  0
   -0.5749    1.2920   -2.8429 H   0  0  0  0  0  0  0  0  0  0  0  0
   -2.2373    1.4732   -2.4611 H   0  0  0  0  0  0  0  0  0  0  0  0
   -0.8559   -2.4517    0.7849 H   0  0  0  0  0  0  0  0  0  0  0  0
    0.3114   -2.2956   -0.4991 H   0  0  0  0  0  0  0  0  0  0  0  0
    0.7984   -2.2361    1.3028 H   0  0  0  0  0  0  0  0  0  0  0  0
   -2.0530   -1.1225    1.5776 H   0  0  0  0  0  0  0  0  0  0  0  0
   -1.5870    0.4663    2.4608 H   0  0  0  0  0  0  0  0  0  0  0  0
   -0.7829   -1.0440    2.7555 H   0  0  0  0  0  0  0  0  0  0  0  0
    1.5030   -0.9628    2.3372 H   0  0  0  0  0  0  0  0  0  0  0  0
    1.9448    0.7887    1.8354 H   0  0  0  0  0  0  0  0  0  0  0  0
    0.6501    0.4364    2.9403 H   0  0  0  0  0  0  0  0  0  0  0  0
    0.7257    0.9517   -1.3169 H   0  0  0  0  0  0  0  0  0  0  0  0
    1.9128    2.4027    0.1665 H   0  0  0  0  0  0  0  0  0  0  0  0
    3.2975    1.4579    0.3696 H   0  0  0  0  0  0  0  0  0  0  0  0
    2.9981    1.9474   -1.2548 H   0  0  0  0  0  0  0  0  0  0  0  0
    3.6315   -0.9351   -0.7218 H   0  0  0  0  0  0  0  0  0  0  0  0
    2.9433   -0.6979    0.9667 H   0  0  0  0  0  0  0  0  0  0  0  0
    2.2843   -2.0265   -0.0581 H   0  0  0  0  0  0  0  0  0  0  0  0
    1.4383   -1.8468   -2.0747 H   0  0  0  0  0  0  0  0  0  0  0  0
    2.3559   -0.5039   -2.6820 H   0  0  0  0  0  0  0  0  0  0  0  0
    0.6730   -0.6825   -3.0107 H   0  0  0  0  0  0  0  0  0  0  0  0
  1  2  1  0
  2  3  1  0
  2  4  1  0
  2  5  1  0
  5  6  1  0
  6  7  2  0
  7  8  2  0
  5  9  1  0
  5 10  1  0
  5 11  1  0
  5 12  1  0
 12 13  1  0
 12 14  1  0
 12 15  1  0
  1 16  1  0
  1 17  1  0
  1 18  1  0
  2 19  1  0
  3 20  1  0
  3 21  1  0
  3 22  1  0
  4 23  1  0
  4 24  1  0
  4 25  1  0
  9 26  1  0
  9 27  1  0
  9 28  1  0
 10 29  1  0
 10 30  1  0
 10 31  1  0
 11 32  1  0
 11 33  1  0
 11 34  1  0
 12 35  1  0
 13 36  1  0
 13 37  1  0
 13 38  1  0
 14 39  1  0
 14 40  1  0
 14 41  1  0
 15 42  1  0
 15 43  1  0
 15 44  1  0
M  CHG  2   7   1   8  -1
M  END
