
 OpenBabel08122501153D

 80 95  0  0  0  0  0  0  0  0999 V2000
    1.0407   -0.0676    0.0614 C   0  0  0  0  0  0  0  0  0  0  0  0
    0.5674    0.5327    1.2581 O   0  0  0  0  0  0  0  0  0  0  0  0
    0.9104   -0.0271    2.5172 C   0  0  0  0  0  0  0  0  0  0  0  0
   -0.0381   -0.0449    3.5264 C   0  0  0  0  0  0  0  0  0  0  0  0
    0.5073   -0.1968    4.8231 C   0  0  0  0  0  0  0  0  0  0  0  0
    1.7249   -0.6409    5.0762 C   0  0  0  0  0  0  0  0  0  0  0  0
    2.5955   -0.6628    4.0221 C   0  0  0  0  0  0  0  0  0  0  0  0
    2.1651   -0.3978    2.7445 C   0  0  0  0  0  0  0  0  0  0  0  0
    2.1230   -1.0876    6.4189 N   0  0  0  0  0  0  0  0  0  0  0  0
    0.7857   -1.0316    7.9452 Cu  0  0  0  0  0  0  0  0  0  0  0  0
   -0.5286   -1.7743    7.9805 P   0  0  0  0  0  4  0  0  0  0  0  0
   -1.7069   -0.8901    9.0661 C   0  0  0  0  0  0  0  0  0  0  0  0
   -2.2674   -1.5992   10.1156 C   0  0  0  0  0  0  0  0  0  0  0  0
   -3.4232   -0.9944   10.6637 C   0  0  0  0  0  0  0  0  0  0  0  0
   -3.7622    0.2697   10.4871 C   0  0  0  0  0  0  0  0  0  0  0  0
   -3.1234    0.9354    9.4781 C   0  0  0  0  0  0  0  0  0  0  0  0
   -2.0705    0.3607    8.8080 C   0  0  0  0  0  0  0  0  0  0  0  0
   -1.2227   -1.8720    6.2900 C   0  0  0  0  0  0  0  0  0  0  0  0
   -2.4599   -1.3062    6.0296 C   0  0  0  0  0  0  0  0  0  0  0  0
   -3.0149   -1.6890    4.7857 C   0  0  0  0  0  0  0  0  0  0  0  0
   -2.3281   -2.2212    3.7911 C   0  0  0  0  0  0  0  0  0  0  0  0
   -1.0852   -2.7008    4.0985 C   0  0  0  0  0  0  0  0  0  0  0  0
   -0.5287   -2.4802    5.3353 C   0  0  0  0  0  0  0  0  0  0  0  0
   -0.2934   -3.1787    8.5164 C   0  0  0  0  0  0  0  0  0  0  0  0
   -0.3704   -3.3034    9.9825 C   0  0  0  0  0  3  0  0  0  0  0  0
    1.9739   -2.3209   12.3170 C   0  0  0  0  0  0  0  0  0  0  0  0
    0.2331   -4.1058    9.4807 C   0  0  0  0  0  0  0  0  0  0  0  0
   -0.5539   -1.3642   11.8329 C   0  0  0  0  0  0  0  0  0  0  0  0
    0.7519   -2.4582   10.6394 Fe  0  0  0  0  0  0  0  0  0  0  0  0
    2.0658   -3.3305   12.3121 C   0  0  0  0  0  0  0  0  0  0  0  0
    2.8018   -3.3351   11.0320 C   0  0  0  0  0  3  0  0  0  0  0  0
    2.0287   -2.8256   10.0562 C   0  0  0  0  0  0  0  0  0  0  0  0
    0.4701   -1.0076   10.4557 C   0  0  0  0  0  0  0  0  0  0  0  0
    0.8277   -2.8147   12.1039 C   0  0  0  0  0  0  0  0  0  0  0  0
    0.9546   -0.2248    9.2460 P   0  0  0  0  0  4  0  0  0  0  0  0
    2.7349    0.1339    9.4709 C   0  0  0  0  0  0  0  0  0  0  0  0
    3.3836   -0.3284   10.6041 C   0  0  0  0  0  0  0  0  0  0  0  0
    4.6586    0.2494   10.8106 C   0  0  0  0  0  0  0  0  0  0  0  0
    5.3550    0.8789    9.8818 C   0  0  0  0  0  0  0  0  0  0  0  0
    4.6725    1.2492    8.7564 C   0  0  0  0  0  0  0  0  0  0  0  0
    3.3803    0.8327    8.5445 C   0  0  0  0  0  0  0  0  0  0  0  0
   -0.0117    1.3237    9.1145 C   0  0  0  0  0  0  0  0  0  0  0  0
    0.6343    2.5453    9.2095 C   0  0  0  0  0  0  0  0  0  0  0  0
   -0.2398    3.6440    9.3850 C   0  0  0  0  0  0  0  0  0  0  0  0
   -1.5351    3.6189    9.1288 C   0  0  0  0  0  0  0  0  0  0  0  0
   -2.1014    2.3836    8.9780 C   0  0  0  0  0  0  0  0  0  0  0  0
   -1.3244    1.2514    8.9281 C   0  0  0  0  0  0  0  0  0  0  0  0
    3.4894   -1.5748    6.6564 C   0  0  0  0  0  0  0  0  0  0  0  0
    4.3266   -1.6098    5.7009 O   0  0  0  0  0  0  0  0  0  0  0  0
    3.9010   -2.0367    8.0448 C   0  0  0  0  0  0  0  0  0  0  0  0
    3.7641   -1.0317    8.9051 F   0  0  0  0  0  0  0  0  0  0  0  0
    3.1280   -3.0513    8.4218 F   0  0  0  0  0  0  0  0  0  0  0  0
    5.1709   -2.4313    8.0225 F   0  0  0  0  0  0  0  0  0  0  0  0
    0.6840    0.4871   -0.7812 H   0  0  0  0  0  0  0  0  0  0  0  0
    0.6840   -1.0747    0.0023 H   0  0  0  0  0  0  0  0  0  0  0  0
    2.1107   -0.0676    0.0614 H   0  0  0  0  0  0  0  0  0  0  0  0
   -1.0881    0.0478    3.3421 H   0  0  0  0  0  0  0  0  0  0  0  0
   -0.1098    0.0665    5.6567 H   0  0  0  0  0  0  0  0  0  0  0  0
    3.6269   -0.8896    4.1947 H   0  0  0  0  0  0  0  0  0  0  0  0
    2.8470   -0.4910    1.9252 H   0  0  0  0  0  0  0  0  0  0  0  0
   -1.8631   -2.5209   10.4789 H   0  0  0  0  0  0  0  0  0  0  0  0
   -4.0672   -1.6035   11.2630 H   0  0  0  0  0  0  0  0  0  0  0  0
   -4.4974    0.7472   11.1006 H   0  0  0  0  0  0  0  0  0  0  0  0
   -3.4480    1.9181    9.2064 H   0  0  0  0  0  0  0  0  0  0  0  0
   -1.5387    0.9261    8.0716 H   0  0  0  0  0  0  0  0  0  0  0  0
   -2.9513   -0.6400    6.7076 H   0  0  0  0  0  0  0  0  0  0  0  0
   -4.0641   -1.5368    4.6407 H   0  0  0  0  0  0  0  0  0  0  0  0
   -2.7231   -2.2742    2.7981 H   0  0  0  0  0  0  0  0  0  0  0  0
   -0.5381   -3.2560    3.3655 H   0  0  0  0  0  0  0  0  0  0  0  0
    0.4731   -2.8014    5.5307 H   0  0  0  0  0  0  0  0  0  0  0  0
    2.9592   -1.0565   11.2633 H   0  0  0  0  0  0  0  0  0  0  0  0
    5.0884    0.1709   11.7874 H   0  0  0  0  0  0  0  0  0  0  0  0
    6.3973    1.0879   10.0033 H   0  0  0  0  0  0  0  0  0  0  0  0
    5.1515    1.8723    8.0303 H   0  0  0  0  0  0  0  0  0  0  0  0
    2.8898    1.0738    7.6247 H   0  0  0  0  0  0  0  0  0  0  0  0
    1.6979    2.6487    9.1550 H   0  0  0  0  0  0  0  0  0  0  0  0
    0.1776    4.5587    9.7509 H   0  0  0  0  0  0  0  0  0  0  0  0
   -2.1105    4.5170    9.0438 H   0  0  0  0  0  0  0  0  0  0  0  0
   -3.1649    2.2972    8.8976 H   0  0  0  0  0  0  0  0  0  0  0  0
   -1.7814    0.3029    8.7373 H   0  0  0  0  0  0  0  0  0  0  0  0
  1  2  1  0  0  0  0
  1 54  1  0  0  0  0
  1 55  1  0  0  0  0
  1 56  1  0  0  0  0
  2  3  1  0  0  0  0
  3  4  1  0  0  0  0
  3  8  2  0  0  0  0
  4  5  2  0  0  0  0
  4 57  1  0  0  0  0
  5  6  1  0  0  0  0
  5 58  1  0  0  0  0
  6  7  2  0  0  0  0
  6  9  1  0  0  0  0
  7  8  1  0  0  0  0
  7 59  1  0  0  0  0
  8 60  1  0  0  0  0
  9 10  1  0  0  0  0
  9 48  1  0  0  0  0
 10 11  1  0  0  0  0
 10 35  1  0  0  0  0
 11 12  1  0  0  0  0
 11 18  1  0  0  0  0
 11 24  1  0  0  0  0
 12 13  1  0  0  0  0
 12 17  2  0  0  0  0
 13 14  2  0  0  0  0
 13 61  1  0  0  0  0
 14 15  1  0  0  0  0
 14 62  1  0  0  0  0
 15 16  2  0  0  0  0
 15 63  1  0  0  0  0
 16 17  1  0  0  0  0
 16 64  1  0  0  0  0
 17 65  1  0  0  0  0
 18 19  1  0  0  0  0
 18 23  2  0  0  0  0
 19 20  2  0  0  0  0
 19 66  1  0  0  0  0
 20 21  1  0  0  0  0
 20 67  1  0  0  0  0
 21 22  2  0  0  0  0
 21 68  1  0  0  0  0
 22 23  1  0  0  0  0
 22 69  1  0  0  0  0
 23 70  1  0  0  0  0
 24 25  1  0  0  0  0
 24 28  2  0  0  0  0
 24 29  1  0  0  0  0
 25 26  1  0  0  0  0
 25 29  1  0  0  0  0
 26 27  2  0  0  0  0
 26 29  1  0  0  0  0
 27 28  1  0  0  0  0
 27 29  1  0  0  0  0
 28 29  1  0  0  0  0
 29 30  1  0  0  0  0
 29 31  1  0  0  0  0
 29 32  1  0  0  0  0
 29 33  1  0  0  0  0
 29 34  1  0  0  0  0
 30 31  1  0  0  0  0
 30 34  2  0  0  0  0
 31 32  1  0  0  0  0
 32 33  2  0  0  0  0
 33 34  1  0  0  0  0
 33 35  1  0  0  0  0
 35 36  1  0  0  0  0
 35 42  1  0  0  0  0
 36 37  1  0  0  0  0
 36 41  2  0  0  0  0
 37 38  2  0  0  0  0
 37 71  1  0  0  0  0
 38 39  1  0  0  0  0
 38 72  1  0  0  0  0
 39 40  2  0  0  0  0
 39 73  1  0  0  0  0
 40 41  1  0  0  0  0
 40 74  1  0  0  0  0
 41 75  1  0  0  0  0
 42 43  1  0  0  0  0
 42 47  2  0  0  0  0
 43 44  2  0  0  0  0
 43 76  1  0  0  0  0
 44 45  1  0  0  0  0
 44 77  1  0  0  0  0
 45 46  2  0  0  0  0
 45 78  1  0  0  0  0
 46 47  1  0  0  0  0
 46 79  1  0  0  0  0
 47 80  1  0  0  0  0
 48 49  2  0  0  0  0
 48 50  1  0  0  0  0
 50 51  1  0  0  0  0
 50 52  1  0  0  0  0
 50 53  1  0  0  0  0
M  END
$$$$
