
     RDKit          3D

 32 35  0  0  0  0  0  0  0  0999 V2000
    0.8193    3.8223   -0.2519 O   0  0  0  0  0  0  0  0  0  0  0  0
    1.0036    2.6109   -0.1788 C   0  0  0  0  0  0  0  0  0  0  0  0
    2.2642    2.0946   -0.1866 N   0  0  0  0  0  0  0  0  0  0  0  0
    2.5413    0.7417    0.0062 C   0  0  0  0  0  0  0  0  0  0  0  0
    3.8756    0.3422    0.1308 C   0  0  0  0  0  0  0  0  0  0  0  0
    4.1744   -0.9829    0.4346 C   0  0  0  0  0  0  0  0  0  0  0  0
    3.1410   -1.8927    0.6343 C   0  0  0  0  0  0  0  0  0  0  0  0
    1.8089   -1.4862    0.4965 C   0  0  0  0  0  0  0  0  0  0  0  0
    1.4838   -0.1709    0.1324 C   0  0  0  0  0  0  0  0  0  0  0  0
    0.0806    0.3011   -0.0573 C   0  0  0  0  0  0  0  0  0  0  0  0
   -0.1271    1.6401   -0.1095 C   0  0  0  0  0  0  0  0  0  0  0  0
   -1.5045    2.2579   -0.0961 C   0  0  0  0  0  0  0  0  0  0  0  0
   -2.4961    1.3771    0.6664 C   0  0  0  0  0  0  0  0  0  0  0  0
   -2.4056   -0.0377    0.1623 C   0  0  0  0  0  0  0  0  0  0  0  0
   -3.5589   -0.8284    0.0598 C   0  0  0  0  0  0  0  0  0  0  0  0
   -3.4833   -2.1067   -0.4856 C   0  0  0  0  0  0  0  0  0  0  0  0
   -2.2623   -2.5910   -0.9436 C   0  0  0  0  0  0  0  0  0  0  0  0
   -1.1078   -1.8114   -0.8236 C   0  0  0  0  0  0  0  0  0  0  0  0
   -1.1471   -0.5441   -0.2238 C   0  0  0  0  0  0  0  0  0  0  0  0
    3.0134    2.7709   -0.2355 H   0  0  0  0  0  0  0  0  0  0  0  0
    4.6850    1.0577    0.0168 H   0  0  0  0  0  0  0  0  0  0  0  0
    5.2087   -1.2989    0.5427 H   0  0  0  0  0  0  0  0  0  0  0  0
    3.3670   -2.9208    0.9076 H   0  0  0  0  0  0  0  0  0  0  0  0
    1.0341   -2.2185    0.7055 H   0  0  0  0  0  0  0  0  0  0  0  0
   -1.4967    3.2417    0.3870 H   0  0  0  0  0  0  0  0  0  0  0  0
   -1.8365    2.4062   -1.1317 H   0  0  0  0  0  0  0  0  0  0  0  0
   -2.2772    1.3859    1.7414 H   0  0  0  0  0  0  0  0  0  0  0  0
   -3.5076    1.7767    0.5291 H   0  0  0  0  0  0  0  0  0  0  0  0
   -4.5226   -0.4416    0.3830 H   0  0  0  0  0  0  0  0  0  0  0  0
   -4.3800   -2.7141   -0.5768 H   0  0  0  0  0  0  0  0  0  0  0  0
   -2.2061   -3.5745   -1.4033 H   0  0  0  0  0  0  0  0  0  0  0  0
   -0.1816   -2.2065   -1.2323 H   0  0  0  0  0  0  0  0  0  0  0  0
  1  2  2  0
  2  3  1  0
  3  4  1  0
  4  5  2  0
  5  6  1  0
  6  7  2  0
  7  8  1  0
  8  9  2  0
  9 10  1  0
 10 11  2  0
 11 12  1  0
 12 13  1  0
 13 14  1  0
 14 15  2  0
 15 16  1  0
 16 17  2  0
 17 18  1  0
 18 19  2  0
 11  2  1  0
 19 14  1  0
  9  4  1  0
 19 10  1  0
  3 20  1  0
  5 21  1  0
  6 22  1  0
  7 23  1  0
  8 24  1  0
 12 25  1  0
 12 26  1  0
 13 27  1  0
 13 28  1  0
 15 29  1  0
 16 30  1  0
 17 31  1  0
 18 32  1  0
M  END
