
     RDKit          3D

 35 38  0  0  0  0  0  0  0  0999 V2000
   -3.4232   -1.8763   -0.3537 C   0  0  0  0  0  0  0  0  0  0  0  0
   -2.0468   -1.6724   -0.2059 C   0  0  0  0  0  0  0  0  0  0  0  0
   -1.5060   -0.3839   -0.0538 C   0  0  0  0  0  0  0  0  0  0  0  0
   -0.0815   -0.1817    0.1086 N   0  0  0  0  0  0  0  0  0  0  0  0
    0.5216    1.0234   -0.2361 C   0  0  0  0  0  0  0  0  0  0  0  0
   -0.0306    1.9697   -0.7959 O   0  0  0  0  0  0  0  0  0  0  0  0
    1.9980    1.1435    0.0431 C   0  0  2  0  0  0  0  0  0  0  0  0
    2.8837    0.5638   -1.0787 C   0  0  0  0  0  0  0  0  0  0  0  0
    3.8531   -0.3121   -0.2645 C   0  0  2  0  0  0  0  0  0  0  0  0
    5.4464   -0.6907   -1.2432 Br  0  0  0  0  0  0  0  0  0  0  0  0
    3.1204   -1.5030    0.0836 O   0  0  0  0  0  0  0  0  0  0  0  0
    2.1410   -1.0838    1.0694 C   0  0  2  0  0  0  0  0  0  0  0  0
    2.3546   -2.0944    2.5275 Cl  0  0  0  0  0  0  0  0  0  0  0  0
    0.7250   -1.3476    0.5055 C   0  0  0  0  0  0  0  0  0  0  0  0
    2.4939    0.3965    1.2963 C   0  0  1  0  0  0  0  0  0  0  0  0
    4.0034    0.4814    1.0260 C   0  0  1  0  0  0  0  0  0  0  0  0
    5.3075   -0.1958    2.5126 I   0  0  0  0  0  0  0  0  0  0  0  0
   -2.4100    0.6905   -0.0342 C   0  0  0  0  0  0  0  0  0  0  0  0
   -3.7996    0.5018   -0.1728 C   0  0  0  0  0  0  0  0  0  0  0  0
   -4.7287    1.6910   -0.1658 C   0  0  0  0  0  0  0  0  0  0  0  0
   -4.3534    2.6551    0.7205 F   0  0  0  0  0  0  0  0  0  0  0  0
   -6.0101    1.3654    0.1674 F   0  0  0  0  0  0  0  0  0  0  0  0
   -4.8042    2.3016   -1.3795 F   0  0  0  0  0  0  0  0  0  0  0  0
   -4.2961   -0.7942   -0.3427 C   0  0  0  0  0  0  0  0  0  0  0  0
   -3.8103   -2.8844   -0.4852 H   0  0  0  0  0  0  0  0  0  0  0  0
   -1.4172   -2.5566   -0.2479 H   0  0  0  0  0  0  0  0  0  0  0  0
    2.2122    2.2151    0.1646 H   0  0  0  0  0  0  0  0  0  0  0  0
    3.3943    1.3794   -1.6042 H   0  0  0  0  0  0  0  0  0  0  0  0
    2.3114   -0.0167   -1.8113 H   0  0  0  0  0  0  0  0  0  0  0  0
    0.1350   -1.8740    1.2661 H   0  0  0  0  0  0  0  0  0  0  0  0
    0.8025   -1.9973   -0.3758 H   0  0  0  0  0  0  0  0  0  0  0  0
    2.1271    0.8269    2.2314 H   0  0  0  0  0  0  0  0  0  0  0  0
    4.3137    1.5142    0.8119 H   0  0  0  0  0  0  0  0  0  0  0  0
   -2.0622    1.7104    0.1208 H   0  0  0  0  0  0  0  0  0  0  0  0
   -5.3649   -0.9647   -0.4637 H   0  0  0  0  0  0  0  0  0  0  0  0
  1  2  2  0
  2  3  1  0
  3  4  1  0
  4  5  1  0
  5  6  2  0
  5  7  1  0
  7  8  1  0
  8  9  1  0
  9 10  1  6
  9 11  1  0
 11 12  1  0
 12 13  1  1
 12 14  1  0
 12 15  1  0
 15 16  1  0
 16 17  1  0
  3 18  2  0
 18 19  1  0
 19 20  1  0
 20 21  1  0
 20 22  1  0
 20 23  1  0
 19 24  2  0
 24  1  1  0
 14  4  1  0
 15  7  1  0
 16  9  1  0
  1 25  1  0
  2 26  1  0
  7 27  1  1
  8 28  1  0
  8 29  1  0
 14 30  1  0
 14 31  1  0
 15 32  1  1
 16 33  1  6
 18 34  1  0
 24 35  1  0
M  END
