
     RDKit          3D

  0  0  0  0  0  0  0  0  0  0999 V3000
M  V30 BEGIN CTAB
M  V30 COUNTS 43 45 0 0 0
M  V30 BEGIN ATOM
M  V30 1 C 5.581723 -0.744305 0.156702 0
M  V30 2 C 5.035730 0.093460 1.128768 0
M  V30 3 C 3.728544 0.493962 0.942632 0
M  V30 4 C 2.966533 0.103656 -0.142233 0
M  V30 5 C 1.548637 0.577365 -0.295195 0 CFG=1
M  V30 6 C 1.595864 1.627988 -1.378278 0
M  V30 7 N 0.668123 -0.509351 -0.600099 0
M  V30 8 Pt -0.902030 -0.040334 -1.783133 0 CFG=2 VAL=4
M  V30 9 N -2.560895 0.426669 -2.873530 0
M  V30 10 C -2.698543 1.563782 -3.434409 0
M  V30 11 O -3.170023 2.680292 -3.646315 0
M  V30 12 C -2.107370 -1.564689 -0.749586 0
M  V30 13 C -2.410077 -2.890875 -0.680363 0
M  V30 14 C -3.275609 -3.217319 0.326375 0
M  V30 15 C -3.776139 -2.263887 1.175171 0
M  V30 16 C -3.496225 -0.920300 1.137117 0
M  V30 17 C -2.606092 -0.519377 0.114506 0
M  V30 18 C -2.392767 0.997765 0.077918 0 CFG=1
M  V30 19 C -2.770290 1.606054 1.402470 0
M  V30 20 N -1.320148 1.653319 -0.621849 0
M  V30 21 C 3.565812 -0.728361 -1.072357 0
M  V30 22 C 4.869413 -1.163928 -0.943792 0
M  V30 23 H 6.585990 -1.087488 0.247182 0
M  V30 24 H 5.647604 0.393301 1.981776 0
M  V30 25 H 3.316764 1.147563 1.709907 0
M  V30 26 H 1.254168 1.020847 0.669717 0
M  V30 27 H 0.753088 1.615024 -2.068582 0
M  V30 28 H 1.642527 2.640753 -0.919097 0
M  V30 29 H 2.520701 1.535428 -2.018744 0
M  V30 30 H 1.208650 -1.240434 -1.105219 0
M  V30 31 H 0.358346 -1.005870 0.290385 0
M  V30 32 H -1.793885 -3.172089 -1.517943 0
M  V30 33 H -3.385404 -4.283151 0.213581 0
M  V30 34 H -4.439861 -2.695645 1.907065 0
M  V30 35 H -3.981111 -0.342802 1.878212 0
M  V30 36 H -3.304511 1.292823 -0.585104 0
M  V30 37 H -3.868923 1.707570 1.538903 0
M  V30 38 H -2.454943 0.937027 2.248534 0
M  V30 39 H -2.334975 2.605786 1.502389 0
M  V30 40 H -1.618359 2.487674 -1.218793 0
M  V30 41 H -0.526060 2.060529 -0.094064 0
M  V30 42 H 3.035903 -1.069001 -1.942740 0
M  V30 43 H 5.310119 -1.809431 -1.678946 0
M  V30 END ATOM
M  V30 BEGIN BOND
M  V30 1 2 1 2
M  V30 2 1 2 3
M  V30 3 2 3 4
M  V30 4 1 4 5
M  V30 5 1 5 6
M  V30 6 1 5 7
M  V30 7 9 7 8
M  V30 8 1 8 9
M  V30 9 2 9 10
M  V30 10 2 10 11
M  V30 11 1 8 12
M  V30 12 2 12 13
M  V30 13 1 13 14
M  V30 14 2 14 15
M  V30 15 1 15 16
M  V30 16 2 16 17
M  V30 17 1 17 18
M  V30 18 1 18 19
M  V30 19 1 18 20
M  V30 20 1 4 21
M  V30 21 2 21 22
M  V30 22 1 22 1
M  V30 23 9 20 8
M  V30 24 1 17 12
M  V30 25 1 1 23
M  V30 26 1 2 24
M  V30 27 1 3 25
M  V30 28 1 5 26 CFG=1
M  V30 29 1 6 27
M  V30 30 1 6 28
M  V30 31 1 6 29
M  V30 32 1 7 30
M  V30 33 1 7 31
M  V30 34 1 13 32
M  V30 35 1 14 33
M  V30 36 1 15 34
M  V30 37 1 16 35
M  V30 38 1 18 36 CFG=3
M  V30 39 1 19 37
M  V30 40 1 19 38
M  V30 41 1 19 39
M  V30 42 1 20 40
M  V30 43 1 20 41
M  V30 44 1 21 42
M  V30 45 1 22 43
M  V30 END BOND
M  V30 END CTAB
M  END
