
 OpenBabel09252513163D

 53 57  0  0  0  0  0  0  0  0999 V2000
    1.0359    0.0865   -0.0351 I   0  0  0  0  0  0  0  0  0  0  0  0
    3.7459    0.0865   -0.0351 Cu  0  0  0  0  0  0  0  0  0  0  0  0
    4.4394    1.2893   -0.0346 S   0  0  0  0  0  3  0  0  0  0  0  0
    5.7064    1.3386    0.3109 P   0  0  0  0  0  0  0  0  0  0  0  0
    6.4646    0.1087    0.7190 C   0  0  0  0  0  0  0  0  0  0  0  0
    5.7284   -1.1352    0.3149 P   0  0  0  0  0  0  0  0  0  0  0  0
    4.4283   -1.0970   -0.0356 S   0  0  0  0  0  3  0  0  0  0  0  0
    5.8157   -2.8891   -0.2000 C   0  0  0  0  0  0  0  0  0  0  0  0
    6.1560   -3.8284    0.7594 C   0  0  0  0  0  0  0  0  0  0  0  0
    6.4761   -5.1002    0.2283 C   0  0  0  0  0  0  0  0  0  0  0  0
    6.1533   -5.5078   -0.9856 C   0  0  0  0  0  0  0  0  0  0  0  0
    5.7597   -4.5398   -1.8675 C   0  0  0  0  0  0  0  0  0  0  0  0
    5.5523   -3.2469   -1.4513 C   0  0  0  0  0  0  0  0  0  0  0  0
    6.0925    0.1918   -0.8916 C   0  0  0  0  0  0  0  0  0  0  0  0
    6.8757   -0.0007   -2.0177 C   0  0  0  0  0  0  0  0  0  0  0  0
    7.1508    1.1877   -2.7346 C   0  0  0  0  0  0  0  0  0  0  0  0
    6.4722    2.3134   -2.6072 C   0  0  0  0  0  0  0  0  0  0  0  0
    5.6637    2.4151   -1.5092 C   0  0  0  0  0  0  0  0  0  0  0  0
    5.4488    1.3351   -0.6875 C   0  0  0  0  0  0  0  0  0  0  0  0
    4.3930    0.2891   -0.4118 C   0  0  0  0  0  0  0  0  0  0  0  0
    4.0930    0.3402   -1.7631 C   0  0  0  0  0  0  0  0  0  0  0  0
    2.8996   -0.3357   -2.1113 C   0  0  0  0  0  0  0  0  0  0  0  0
    2.2982   -1.2331   -1.3517 C   0  0  0  0  0  0  0  0  0  0  0  0
    2.6874   -1.2801   -0.0418 C   0  0  0  0  0  0  0  0  0  0  0  0
    3.7624   -0.5488    0.4026 C   0  0  0  0  0  0  0  0  0  0  0  0
    5.6033    1.8565    2.0631 C   0  0  0  0  0  0  0  0  0  0  0  0
    4.3726    2.0783    2.6587 C   0  0  0  0  0  0  0  0  0  0  0  0
    4.4458    2.7971    3.8753 C   0  0  0  0  0  0  0  0  0  0  0  0
    5.5444    2.9446    4.5932 C   0  0  0  0  0  0  0  0  0  0  0  0
    6.7234    2.6440    3.9693 C   0  0  0  0  0  0  0  0  0  0  0  0
    6.7360    2.0605    2.7255 C   0  0  0  0  0  0  0  0  0  0  0  0
    6.5712    0.1113    1.7837 H   0  0  0  0  0  0  0  0  0  0  0  0
    7.4246    0.1164    0.2465 H   0  0  0  0  0  0  0  0  0  0  0  0
    6.1752   -3.6119    1.8071 H   0  0  0  0  0  0  0  0  0  0  0  0
    7.0173   -5.7790    0.8538 H   0  0  0  0  0  0  0  0  0  0  0  0
    6.1973   -6.5399   -1.2642 H   0  0  0  0  0  0  0  0  0  0  0  0
    5.6110   -4.7928   -2.8964 H   0  0  0  0  0  0  0  0  0  0  0  0
    5.1753   -2.5217   -2.1419 H   0  0  0  0  0  0  0  0  0  0  0  0
    7.2396   -0.9610   -2.3182 H   0  0  0  0  0  0  0  0  0  0  0  0
    7.9654    1.1733   -3.4283 H   0  0  0  0  0  0  0  0  0  0  0  0
    6.5508    3.1034   -3.3246 H   0  0  0  0  0  0  0  0  0  0  0  0
    5.1917    3.3492   -1.2867 H   0  0  0  0  0  0  0  0  0  0  0  0
    4.7565    1.4161    0.1243 H   0  0  0  0  0  0  0  0  0  0  0  0
    4.7078    0.8449   -2.4787 H   0  0  0  0  0  0  0  0  0  0  0  0
    2.4534   -0.1034   -3.0557 H   0  0  0  0  0  0  0  0  0  0  0  0
    1.5469   -1.8882   -1.7405 H   0  0  0  0  0  0  0  0  0  0  0  0
    2.1471   -1.8953    0.6470 H   0  0  0  0  0  0  0  0  0  0  0  0
    4.0943   -0.6554    1.4142 H   0  0  0  0  0  0  0  0  0  0  0  0
    3.4503    1.7371    2.2371 H   0  0  0  0  0  0  0  0  0  0  0  0
    3.5486    3.2528    4.2390 H   0  0  0  0  0  0  0  0  0  0  0  0
    5.5136    3.2813    5.6084 H   0  0  0  0  0  0  0  0  0  0  0  0
    7.6496    2.8665    4.4568 H   0  0  0  0  0  0  0  0  0  0  0  0
    7.6669    1.7677    2.2866 H   0  0  0  0  0  0  0  0  0  0  0  0
  1  2  1  0  0  0  0
  2  3  1  0  0  0  0
  2  7  1  0  0  0  0
  3  4  2  0  0  0  0
  4  5  1  0  0  0  0
  4 20  1  0  0  0  0
  4 26  1  0  0  0  0
  5  6  1  0  0  0  0
  5 32  1  0  0  0  0
  5 33  1  0  0  0  0
  6  7  2  0  0  0  0
  6  8  1  0  0  0  0
  6 14  1  0  0  0  0
  8  9  1  0  0  0  0
  8 13  2  0  0  0  0
  9 10  2  0  0  0  0
  9 34  1  0  0  0  0
 10 11  1  0  0  0  0
 10 35  1  0  0  0  0
 11 12  2  0  0  0  0
 11 36  1  0  0  0  0
 12 13  1  0  0  0  0
 12 37  1  0  0  0  0
 13 38  1  0  0  0  0
 14 15  1  0  0  0  0
 14 19  2  0  0  0  0
 15 16  2  0  0  0  0
 15 39  1  0  0  0  0
 16 17  1  0  0  0  0
 16 40  1  0  0  0  0
 17 18  2  0  0  0  0
 17 41  1  0  0  0  0
 18 19  1  0  0  0  0
 18 42  1  0  0  0  0
 19 43  1  0  0  0  0
 20 21  1  0  0  0  0
 20 25  2  0  0  0  0
 21 22  2  0  0  0  0
 21 44  1  0  0  0  0
 22 23  1  0  0  0  0
 22 45  1  0  0  0  0
 23 24  2  0  0  0  0
 23 46  1  0  0  0  0
 24 25  1  0  0  0  0
 24 47  1  0  0  0  0
 25 48  1  0  0  0  0
 26 27  1  0  0  0  0
 26 31  2  0  0  0  0
 27 28  2  0  0  0  0
 27 49  1  0  0  0  0
 28 29  1  0  0  0  0
 28 50  1  0  0  0  0
 29 30  2  0  0  0  0
 29 51  1  0  0  0  0
 30 31  1  0  0  0  0
 30 52  1  0  0  0  0
 31 53  1  0  0  0  0
M  END
$$$$
