
 OpenBabel09252519483D

 57 60  0  0  0  0  0  0  0  0999 V2000
    0.8670   -0.0463   -0.0493 C   0  0  0  0  0  0  0  0  0  0  0  0
    0.2600    1.2290    0.1370 O   0  0  0  0  0  0  0  0  0  0  0  0
    0.7026    1.9319    1.2311 C   0  0  0  0  0  0  0  0  0  0  0  0
    2.0441    1.9253    1.6414 C   0  0  0  0  0  0  0  0  0  0  0  0
    2.4583    2.7016    2.7261 C   0  0  0  0  0  0  0  0  0  0  0  0
    1.5398    3.4996    3.4015 C   0  0  0  0  0  0  0  0  0  0  0  0
    0.2053    3.5238    2.9920 C   0  0  0  0  0  0  0  0  0  0  0  0
   -0.2227    2.7472    1.9071 C   0  0  0  0  0  0  0  0  0  0  0  0
   -1.6013    2.8447    1.5001 C   0  0  0  0  0  0  0  0  0  0  0  0
   -2.7338    2.9878    1.1194 C   0  0  0  0  0  0  0  0  0  0  0  0
   -4.0749    3.1076    0.6010 C   0  0  0  0  0  0  0  0  0  0  0  0
   -4.5447    4.1753   -0.0972 C   0  0  0  0  0  0  0  0  0  0  0  0
   -3.8349    5.4460   -0.1160 N   0  0  0  0  0  0  0  0  0  0  0  0
   -2.4647    5.7560    0.1157 C   0  0  0  0  0  0  0  0  0  0  0  0
   -1.4568    5.1842   -0.6649 C   0  0  0  0  0  0  0  0  0  0  0  0
   -0.1141    5.4809   -0.4068 C   0  0  0  0  0  0  0  0  0  0  0  0
    0.2250    6.3875    0.5976 C   0  0  0  0  0  0  0  0  0  0  0  0
   -0.7770    7.0072    1.3396 C   0  0  0  0  0  0  0  0  0  0  0  0
   -2.1157    6.6883    1.1023 C   0  0  0  0  0  0  0  0  0  0  0  0
   -4.8798    6.7208   -0.5486 S   0  0  0  0  0  0  0  0  0  0  0  0
   -5.1598    7.5659    0.5923 O   0  0  0  0  0  0  0  0  0  0  0  0
   -4.5076    7.2488   -1.8441 O   0  0  0  0  0  0  0  0  0  0  0  0
   -6.2623    5.6909   -0.7881 C   0  0  0  0  0  0  0  0  0  0  0  0
   -7.5297    6.1318   -1.1448 C   0  0  0  0  0  0  0  0  0  0  0  0
   -8.4708    5.1653   -1.4789 C   0  0  0  0  0  0  0  0  0  0  0  0
   -8.0804    3.8254   -1.5693 C   0  0  0  0  0  0  0  0  0  0  0  0
   -6.7737    3.4376   -1.2383 C   0  0  0  0  0  0  0  0  0  0  0  0
   -5.8926    4.3558   -0.6929 C   0  0  0  0  0  0  0  0  0  0  0  0
   -5.0112    1.4892    1.1272 Si  0  0  0  0  0  0  0  0  0  0  0  0
   -4.2413    0.0728    0.1322 C   0  0  0  0  0  0  0  0  0  0  0  0
   -4.7075    1.1813    2.9824 C   0  0  0  0  0  0  0  0  0  0  0  0
   -6.8754    1.3388    0.9703 C   0  0  0  0  0  0  0  0  0  0  0  0
    0.3415   -0.5490   -0.8669 H   0  0  0  0  0  0  0  0  0  0  0  0
    0.7644   -0.6643    0.8492 H   0  0  0  0  0  0  0  0  0  0  0  0
    1.9165    0.0396   -0.3475 H   0  0  0  0  0  0  0  0  0  0  0  0
    2.7970    1.3481    1.1146 H   0  0  0  0  0  0  0  0  0  0  0  0
    3.5019    2.6941    3.0322 H   0  0  0  0  0  0  0  0  0  0  0  0
    1.8637    4.1154    4.2365 H   0  0  0  0  0  0  0  0  0  0  0  0
   -0.4990    4.1714    3.5090 H   0  0  0  0  0  0  0  0  0  0  0  0
   -1.7051    4.4701   -1.4445 H   0  0  0  0  0  0  0  0  0  0  0  0
    0.6684    4.9822   -0.9727 H   0  0  0  0  0  0  0  0  0  0  0  0
    1.2695    6.6036    0.8068 H   0  0  0  0  0  0  0  0  0  0  0  0
   -0.5204    7.7305    2.1091 H   0  0  0  0  0  0  0  0  0  0  0  0
   -2.8814    7.1743    1.7017 H   0  0  0  0  0  0  0  0  0  0  0  0
   -7.7723    7.1893   -1.1672 H   0  0  0  0  0  0  0  0  0  0  0  0
   -9.4907    5.4519   -1.7232 H   0  0  0  0  0  0  0  0  0  0  0  0
   -8.7948    3.0752   -1.9023 H   0  0  0  0  0  0  0  0  0  0  0  0
   -6.4714    2.4128   -1.4157 H   0  0  0  0  0  0  0  0  0  0  0  0
   -3.2019   -0.0926    0.4279 H   0  0  0  0  0  0  0  0  0  0  0  0
   -4.8030   -0.8521    0.2907 H   0  0  0  0  0  0  0  0  0  0  0  0
   -4.2667    0.3119   -0.9357 H   0  0  0  0  0  0  0  0  0  0  0  0
   -5.0882    2.0301    3.5595 H   0  0  0  0  0  0  0  0  0  0  0  0
   -5.2548    0.2864    3.2962 H   0  0  0  0  0  0  0  0  0  0  0  0
   -3.6486    1.0395    3.2050 H   0  0  0  0  0  0  0  0  0  0  0  0
   -7.3906    2.2610    1.2503 H   0  0  0  0  0  0  0  0  0  0  0  0
   -7.1849    1.0257   -0.0300 H   0  0  0  0  0  0  0  0  0  0  0  0
   -7.2338    0.5514    1.6428 H   0  0  0  0  0  0  0  0  0  0  0  0
  1  2  1  0  0  0  0
  1 33  1  0  0  0  0
  1 34  1  0  0  0  0
  1 35  1  0  0  0  0
  2  3  1  0  0  0  0
  3  4  1  0  0  0  0
  3  8  2  0  0  0  0
  4  5  2  0  0  0  0
  4 36  1  0  0  0  0
  5  6  1  0  0  0  0
  5 37  1  0  0  0  0
  6  7  2  0  0  0  0
  6 38  1  0  0  0  0
  7  8  1  0  0  0  0
  7 39  1  0  0  0  0
  8  9  1  0  0  0  0
  9 10  3  0  0  0  0
 10 11  1  0  0  0  0
 11 12  2  0  0  0  0
 11 29  1  0  0  0  0
 12 13  1  0  0  0  0
 12 28  1  0  0  0  0
 13 14  1  0  0  0  0
 13 20  1  0  0  0  0
 14 15  1  0  0  0  0
 14 19  2  0  0  0  0
 15 16  2  0  0  0  0
 15 40  1  0  0  0  0
 16 17  1  0  0  0  0
 16 41  1  0  0  0  0
 17 18  2  0  0  0  0
 17 42  1  0  0  0  0
 18 19  1  0  0  0  0
 18 43  1  0  0  0  0
 19 44  1  0  0  0  0
 20 21  2  0  0  0  0
 20 22  2  0  0  0  0
 20 23  1  0  0  0  0
 23 24  1  0  0  0  0
 23 28  2  0  0  0  0
 24 25  2  0  0  0  0
 24 45  1  0  0  0  0
 25 26  1  0  0  0  0
 25 46  1  0  0  0  0
 26 27  2  0  0  0  0
 26 47  1  0  0  0  0
 27 28  1  0  0  0  0
 27 48  1  0  0  0  0
 29 30  1  0  0  0  0
 29 31  1  0  0  0  0
 29 32  1  0  0  0  0
 30 49  1  0  0  0  0
 30 50  1  0  0  0  0
 30 51  1  0  0  0  0
 31 52  1  0  0  0  0
 31 53  1  0  0  0  0
 31 54  1  0  0  0  0
 32 55  1  0  0  0  0
 32 56  1  0  0  0  0
 32 57  1  0  0  0  0
M  END
$$$$
