
     RDKit          3D

 26 26  0  0  0  0  0  0  0  0999 V2000
    1.8615   -1.3357   -0.3983 C   0  0  0  0  0  0  0  0  0  0  0  0
    3.1972   -0.9409   -0.2684 C   0  0  0  0  0  0  0  0  0  0  0  0
    3.4945    0.3281    0.2450 C   0  0  0  0  0  0  0  0  0  0  0  0
    4.8950    0.7488    0.3840 N   0  0  0  0  0  4  0  0  0  0  0  0
    5.7742   -0.0513    0.0348 O   0  0  0  0  0  1  0  0  0  0  0  0
    5.1135    1.8791    0.8424 O   0  0  0  0  0  0  0  0  0  0  0  0
    2.4655    1.1998    0.6272 C   0  0  0  0  0  0  0  0  0  0  0  0
    1.1316    0.7972    0.4940 C   0  0  0  0  0  0  0  0  0  0  0  0
    0.8218   -0.4720   -0.0191 C   0  0  0  0  0  0  0  0  0  0  0  0
   -0.5801   -0.9485   -0.1814 C   0  0  0  0  0  0  0  0  0  0  0  0
   -0.8664   -2.0483   -0.6255 O   0  0  0  0  0  0  0  0  0  0  0  0
   -1.4546    0.0026    0.2277 O   0  0  0  0  0  0  0  0  0  0  0  0
   -2.8514   -0.3322    0.1200 C   0  0  0  0  0  0  0  0  0  0  0  0
   -3.3392   -0.0356   -1.2935 C   0  0  0  0  0  0  0  0  0  0  0  0
   -3.5967    0.5217    1.1384 C   0  0  0  0  0  0  0  0  0  0  0  0
    1.6335   -2.3235   -0.7981 H   0  0  0  0  0  0  0  0  0  0  0  0
    3.9844   -1.6297   -0.5697 H   0  0  0  0  0  0  0  0  0  0  0  0
    2.6820    2.1888    1.0277 H   0  0  0  0  0  0  0  0  0  0  0  0
    0.3439    1.4851    0.7949 H   0  0  0  0  0  0  0  0  0  0  0  0
   -3.0132   -1.3885    0.3673 H   0  0  0  0  0  0  0  0  0  0  0  0
   -2.8069   -0.6498   -2.0270 H   0  0  0  0  0  0  0  0  0  0  0  0
   -4.4109   -0.2336   -1.3923 H   0  0  0  0  0  0  0  0  0  0  0  0
   -3.1482    1.0092   -1.5623 H   0  0  0  0  0  0  0  0  0  0  0  0
   -3.2258    0.3186    2.1490 H   0  0  0  0  0  0  0  0  0  0  0  0
   -3.4330    1.5891    0.9526 H   0  0  0  0  0  0  0  0  0  0  0  0
   -4.6722    0.3215    1.1151 H   0  0  0  0  0  0  0  0  0  0  0  0
  1  2  2  0
  2  3  1  0
  3  4  1  0
  4  5  1  0
  4  6  2  0
  3  7  2  0
  7  8  1  0
  8  9  2  0
  9 10  1  0
 10 11  2  0
 10 12  1  0
 12 13  1  0
 13 14  1  0
 13 15  1  0
  9  1  1  0
  1 16  1  0
  2 17  1  0
  7 18  1  0
  8 19  1  0
 13 20  1  0
 14 21  1  0
 14 22  1  0
 14 23  1  0
 15 24  1  0
 15 25  1  0
 15 26  1  0
M  CHG  2   4   1   5  -1
M  END
