
 OpenBabel09252516563D

 43 45  0  0  0  0  0  0  0  0999 V2000
    0.9032    0.0002    0.0251 C   0  0  0  0  0  0  0  0  0  0  0  0
    0.3965   -0.1330    1.4520 C   0  0  0  0  0  0  0  0  0  0  0  0
    0.8865    0.9977    2.2535 N   0  0  0  0  0  4  0  0  0  0  0  0
    0.1965    2.7712    1.4390 Pt  0  0  0  0  0  0  0  0  0  0  0  0
   -1.1426    2.7312    2.1405 N   0  0  0  0  0  4  0  0  0  0  0  0
   -1.1556    4.3856    2.9339 C   0  0  0  0  0  0  0  0  0  0  0  0
   -2.3439    5.2761    2.6091 C   0  0  0  0  0  0  0  0  0  0  0  0
    0.4294    4.9449    2.3461 C   0  0  0  0  0  0  0  0  0  0  0  0
    1.0666    6.0498    2.5280 C   0  0  0  0  0  0  0  0  0  0  0  0
    2.3288    6.2499    1.9515 C   0  0  0  0  0  0  0  0  0  0  0  0
    2.8778    5.2265    1.1616 C   0  0  0  0  0  0  0  0  0  0  0  0
    2.2100    4.0870    0.9796 C   0  0  0  0  0  0  0  0  0  0  0  0
    0.9304    3.8875    1.5743 C   0  0  0  0  0  0  0  0  0  0  0  0
    0.2087    2.8832   -0.6279 N   0  0  0  0  0  0  0  0  0  0  0  0
   -0.2131    3.9743   -1.2301 C   0  0  0  0  0  0  0  0  0  0  0  0
   -0.6204    5.0282   -1.8118 O   0  0  0  0  0  0  0  0  0  0  0  0
   -1.1235   -0.1330    1.4520 C   0  0  0  0  0  0  0  0  0  0  0  0
   -1.8472   -1.3553    1.5315 C   0  0  0  0  0  0  0  0  0  0  0  0
   -3.2195   -1.3642    1.2327 C   0  0  0  0  0  0  0  0  0  0  0  0
   -3.8757   -0.2440    1.1547 C   0  0  0  0  0  0  0  0  0  0  0  0
   -3.2177    0.9727    1.3789 C   0  0  0  0  0  0  0  0  0  0  0  0
   -1.8021    1.0132    1.3775 C   0  0  0  0  0  0  0  0  0  0  0  0
    0.5465    0.9170   -0.3959 H   0  0  0  0  0  0  0  0  0  0  0  0
    0.5465   -0.8228   -0.5583 H   0  0  0  0  0  0  0  0  0  0  0  0
    1.9732    0.0002    0.0251 H   0  0  0  0  0  0  0  0  0  0  0  0
    0.7532   -1.0497    1.8730 H   0  0  0  0  0  0  0  0  0  0  0  0
    0.5465    0.9083    3.2110 H   0  0  0  0  0  0  0  0  0  0  0  0
    1.9065    0.9977    2.2535 H   0  0  0  0  0  0  0  0  0  0  0  0
   -1.9375    2.5476    1.5282 H   0  0  0  0  0  0  0  0  0  0  0  0
   -1.1833    1.9821    2.8316 H   0  0  0  0  0  0  0  0  0  0  0  0
   -1.1946    4.3242    4.0014 H   0  0  0  0  0  0  0  0  0  0  0  0
   -3.2420    4.8163    2.9652 H   0  0  0  0  0  0  0  0  0  0  0  0
   -2.2175    6.2267    3.0838 H   0  0  0  0  0  0  0  0  0  0  0  0
   -2.4086    5.4122    1.5498 H   0  0  0  0  0  0  0  0  0  0  0  0
    0.6282    6.8222    3.1248 H   0  0  0  0  0  0  0  0  0  0  0  0
    2.8629    7.1634    2.1101 H   0  0  0  0  0  0  0  0  0  0  0  0
    3.8355    5.3619    0.7041 H   0  0  0  0  0  0  0  0  0  0  0  0
    2.6403    3.3126    0.3795 H   0  0  0  0  0  0  0  0  0  0  0  0
   -1.3507   -2.2593    1.8162 H   0  0  0  0  0  0  0  0  0  0  0  0
   -3.7253   -2.2928    1.0692 H   0  0  0  0  0  0  0  0  0  0  0  0
   -4.9194   -0.2514    0.9190 H   0  0  0  0  0  0  0  0  0  0  0  0
   -3.7814    1.8658    1.5501 H   0  0  0  0  0  0  0  0  0  0  0  0
   -1.2851    1.9481    1.3176 H   0  0  0  0  0  0  0  0  0  0  0  0
  1  2  1  0  0  0  0
  1 23  1  0  0  0  0
  1 24  1  0  0  0  0
  1 25  1  0  0  0  0
  2  3  1  0  0  0  0
  2 17  1  0  0  0  0
  2 26  1  0  0  0  0
  3  4  1  0  0  0  0
  3 27  1  0  0  0  0
  3 28  1  0  0  0  0
  4  5  1  0  0  0  0
  4 13  1  0  0  0  0
  4 14  1  0  0  0  0
  5  6  1  0  0  0  0
  5 29  1  0  0  0  0
  5 30  1  0  0  0  0
  6  7  1  0  0  0  0
  6  8  1  0  0  0  0
  6 31  1  0  0  0  0
  7 32  1  0  0  0  0
  7 33  1  0  0  0  0
  7 34  1  0  0  0  0
  8  9  1  0  0  0  0
  8 13  2  0  0  0  0
  9 10  2  0  0  0  0
  9 35  1  0  0  0  0
 10 11  1  0  0  0  0
 10 36  1  0  0  0  0
 11 12  2  0  0  0  0
 11 37  1  0  0  0  0
 12 13  1  0  0  0  0
 12 38  1  0  0  0  0
 14 15  2  0  0  0  0
 15 16  2  0  0  0  0
 17 18  1  0  0  0  0
 17 22  2  0  0  0  0
 18 19  2  0  0  0  0
 18 39  1  0  0  0  0
 19 20  1  0  0  0  0
 19 40  1  0  0  0  0
 20 21  2  0  0  0  0
 20 41  1  0  0  0  0
 21 22  1  0  0  0  0
 21 42  1  0  0  0  0
 22 43  1  0  0  0  0
M  END
$$$$
