
  --CCDC--092525    3D                              

 80 84  0  0  0  0  0  0  0  0999 V2000
    2.4326   -1.0877   -4.2858 H      0
    1.8125   -1.3847   -3.4452 C      0
    1.5896   -0.5676   -2.5572 O      0
    2.7161   -1.0906   -1.8571 Cl     0
    0.4578   -0.0995   -3.2876 Cl     0
    2.1988    0.7422   -2.6481 C      0
    2.7479    1.0293   -3.9849 N      0
    2.0791    2.0191   -4.8199 C      0
    1.2907    1.5521   -5.8924 C      0
    1.0576    0.1011   -6.2315 C      0
    0.2039   -0.2960   -5.6880 H      0
    0.8642   -0.0178   -7.2956 H      0
    1.9293   -0.4986   -5.9784 H      0
    0.6194    2.4686   -6.6956 C      0
    0.0192    2.0962   -7.5191 H      0
    0.6746    3.8309   -6.4809 C      0
   -0.0899    4.7968   -7.3528 C      0
   -0.3775    5.6813   -6.7883 H      0
   -0.9945    4.3333   -7.7407 H      0
    0.5163    5.1164   -8.1979 H      0
    1.4465    4.2706   -5.4241 C      0
    1.5051    5.3373   -5.2348 H      0
    2.1657    3.4097   -4.6002 C      0
    3.0233    4.0947   -3.5720 C      0
    3.0815    3.5213   -2.6502 H      0
    2.6110    5.0715   -3.3279 H      0
    4.0246    4.2480   -3.9607 H      0
    4.2224    1.0195   -3.9121 C      0
    4.6510    1.7114   -4.6356 H      0
    4.6128    0.0188   -4.0915 H      0
    4.5167    1.4653   -2.5042 C      0
    4.4970    2.5505   -2.4152 H      0
    5.4785    1.0901   -2.1578 H      0
    3.3969    0.8409   -1.7766 N      0
    3.2354    1.1011   -0.3610 C      0
    4.0269    0.3519    0.5225 C      0
    5.0139   -0.6904    0.0628 C      0
    5.3631   -0.4939   -0.9472 H      0
    4.5595   -1.6789    0.0746 H      0
    5.8811   -0.7117    0.7196 H      0
    3.8973    0.5677    1.8910 C      0
    4.5008   -0.0225    2.5726 H      0
    3.0239    1.5038    2.4143 C      0
    2.8931    1.7052    3.9042 C      0
    3.8279    1.4700    4.4088 H      0
    2.1161    1.0629    4.3135 H      0
    2.6349    2.7372    4.1327 H      0
    2.2966    2.2687    1.5203 C      0
    1.6276    3.0294    1.9091 H      0
    2.4004    2.1112    0.1413 C      0
    1.6435    3.0806   -0.7230 C      0
    1.8705    2.9037   -1.7715 H      0
    1.9265    4.1043   -0.4870 H      0
    0.5699    2.9874   -0.5770 H      0
    0.8519   -0.8005   -1.4760 N      0
    1.7506   -1.0957   -0.4162 C      0
    2.8055   -1.0087   -0.6691 H      0
    1.5519   -2.0472    0.0822 H      0
    1.6448   -0.3572    0.3732 H      0
    0.1435    0.3835   -1.1384 C      0
    0.7355    1.0626   -0.5383 H      0
   -0.7275    0.1414   -0.5348 H      0
   -0.2447    0.9343   -1.9939 H      0
   -0.1496   -1.9598   -1.5636 C      0
   -1.1140   -1.6081   -1.9643 H      0
   -0.4019   -2.4956   -0.1655 C      0
   -1.4211   -2.8686   -0.0889 H      0
   -0.2796   -1.7205    0.5874 H      0
    0.2634   -3.3205    0.0794 H      0
    0.3665   -3.0759   -2.4344 C      0
   -0.0689   -4.3934   -2.3248 C      0
   -0.7923   -4.6683   -1.5586 H      0
    0.4226   -5.3547   -3.1955 C      0
    0.0835   -6.3862   -3.1120 H      0
    1.3400   -5.0091   -4.1678 C      0
    1.7217   -5.7690   -4.8480 H      0
    1.7774   -3.6978   -4.2815 C      0
    2.5010   -3.4304   -5.0501 H      0
    1.2892   -2.7174   -3.4086 C      0
    1.4752    1.5078   -2.3721 H      0
  1  2  1
  2  3  2
  3  4  1
  3  5  1
  3  6  1
  6  7  1
  7  8  1
  8  9  4
  9 10  1
 10 11  1
 10 12  1
 10 13  1
  9 14  4
 14 15  1
 14 16  4
 16 17  1
 17 18  1
 17 19  1
 17 20  1
 16 21  4
 21 22  1
 21 23  4
  8 23  4
 23 24  1
 24 25  1
 24 26  1
 24 27  1
  7 28  1
 28 29  1
 28 30  1
 28 31  1
 31 32  1
 31 33  1
 31 34  1
  6 34  1
 34 35  1
 35 36  4
 36 37  1
 37 38  1
 37 39  1
 37 40  1
 36 41  4
 41 42  1
 41 43  4
 43 44  1
 44 45  1
 44 46  1
 44 47  1
 43 48  4
 48 49  1
 48 50  4
 35 50  4
 50 51  1
 51 52  1
 51 53  1
 51 54  1
  3 55  1
 55 56  1
 56 57  1
 56 58  1
 56 59  1
 55 60  1
 60 61  1
 60 62  1
 60 63  1
 55 64  1
 64 65  1
 64 66  1
 66 67  1
 66 68  1
 66 69  1
 64 70  1
 70 71  4
 71 72  1
 71 73  4
 73 74  1
 73 75  4
 75 76  1
 75 77  4
 77 78  1
 77 79  4
 70 79  4
  2 79  1
  6 80  1
M  END
$$$$
