
  --CCDC--092525    3D                              

 64 65  0  0  0  0  0  0  0  0999 V2000
    1.2405    0.7943    0.1476 H      0
    0.3593    0.5186    0.7251 C      0
   -0.3466   -0.0054    0.0825 H      0
   -0.3005    1.7903    1.1916 C      0
   -1.5857    1.9961    1.0046 N      0
   -1.9143    3.1607    1.5981 N      0
   -3.1143    3.8018    1.4102 O      0
   -3.8271    2.5800    1.1261 C      0
   -3.7648    2.2178    0.1071 H      0
   -4.8736    2.6303    1.3515 H      0
   -3.5181    1.6942    1.6573 H      0
   -2.7192    5.0949    1.8715 C      0
   -1.7739    5.1731    2.3864 H      0
   -3.4256    5.5437    2.5473 H      0
   -2.5502    5.7794    1.0467 H      0
   -2.4323    3.9994    0.1406 C      0
   -2.4593    3.1766   -0.5678 H      0
   -1.3830    4.2398    0.2627 H      0
   -2.7339    4.8147   -0.4931 H      0
   -4.4536    4.5991    0.7119 P      0
   -6.2061    4.4423    1.2017 C      0
   -6.4936    3.4743    1.6037 H      0
   -6.8258    4.6057    0.3225 H      0
   -6.5022    5.2065    1.9146 H      0
   -4.8292    6.3236    1.1952 C      0
   -5.7225    6.6412    0.6616 H      0
   -4.0449    7.0202    0.9047 H      0
   -5.0434    6.4746    2.2480 H      0
   -4.9440    3.8355   -0.8748 C      0
   -5.4841    2.8988   -0.7494 H      0
   -4.1125    3.6641   -1.5547 H      0
   -5.6283    4.5079   -1.3879 H      0
   -3.4451    3.4203    3.0126 P      0
   -4.9881    4.0334    3.7276 C      0
   -5.1940    5.0611    3.4580 H      0
   -5.8316    3.4027    3.4602 H      0
   -4.9164    3.9984    4.8127 H      0
   -2.4447    2.0603    3.7109 C      0
   -2.3494    1.1959    3.0595 H      0
   -1.4462    2.3754    3.9980 H      0
   -2.9203    1.7105    4.6248 H      0
   -2.6668    4.3643    4.3636 C      0
   -2.8216    3.8489    5.3092 H      0
   -3.0921    5.3598    4.4697 H      0
   -1.5943    4.4682    4.2226 H      0
   -0.8069    3.6850    2.1638 N      0
    0.1991    2.8699    1.9331 C      0
    1.5598    3.1276    2.4960 C      0
    1.6625    4.1963    2.6782 H      0
    2.3025    2.8110    1.7651 H      0
    1.8183    2.3877    3.7996 C      0
    1.3331    2.9481    4.5974 H      0
    2.8946    2.3790    3.9649 H      0
    1.3319    0.9588    3.8846 C      0
    0.2447    0.9723    3.8237 H      0
    1.6364    0.5597    4.8510 H      0
    1.8538    0.0038    2.7940 C      0
    2.2672   -0.8779    3.2813 H      0
    2.6401    0.5148    2.2403 H      0
    0.8016   -0.4476    1.8131 C      0
    1.1863   -1.3368    1.3160 H      0
   -0.0843   -0.7089    2.3901 H      0
   -4.0420    5.5806   -0.1971 H      0
   -4.3401    2.3500    3.1432 H      0
  1  2  1
  2  3  1
  2  4  1
  4  5  2
  5  6  1
  6  7  1
  7  8  1
  8  9  1
  8 10  1
  8 11  1
  7 12  1
 12 13  1
 12 14  1
 12 15  1
  7 16  1
 16 17  1
 16 18  1
 16 19  1
  7 20  1
 20 21  1
 21 22  1
 21 23  1
 21 24  1
 20 25  1
 25 26  1
 25 27  1
 25 28  1
 20 29  1
 29 30  1
 29 31  1
 29 32  1
  7 33  1
 33 34  1
 34 35  1
 34 36  1
 34 37  1
 33 38  1
 38 39  1
 38 40  1
 38 41  1
 33 42  1
 42 43  1
 42 44  1
 42 45  1
  6 46  1
 46 47  2
  4 47  1
 47 48  1
 48 49  1
 48 50  1
 48 51  1
 51 52  1
 51 53  1
 51 54  1
 54 55  1
 54 56  1
 54 57  1
 57 58  1
 57 59  1
 57 60  1
  2 60  1
 60 61  1
 60 62  1
 20 63  1
 33 64  1
M  END
$$$$
