
 OpenBabel09252517413D

 28 28  0  0  0  0  0  0  0  0999 V2000
    1.2014    0.1564   -0.0443 C   0  0  0  0  0  0  0  0  0  0  0  0
    0.4882    0.3656   -1.3778 C   0  0  0  0  0  0  0  0  0  0  0  0
    0.9871   -0.5455   -2.5022 C   0  0  0  0  0  0  0  0  0  0  0  0
    1.7835    0.0580   -3.5900 C   0  0  0  0  0  0  0  0  0  0  0  0
    2.1377    1.3440   -3.7596 C   0  0  0  0  0  0  0  0  0  0  0  0
    2.9189    1.8007   -4.9234 C   0  0  0  0  0  0  0  0  0  0  0  0
    2.5976    1.4096   -6.2336 C   0  0  0  0  0  0  0  0  0  0  0  0
    3.3514    1.8703   -7.3166 C   0  0  0  0  0  0  0  0  0  0  0  0
    4.4179    2.7311   -7.0918 C   0  0  0  0  0  0  0  0  0  0  0  0
    5.1430    3.1698   -8.1289 F   0  0  0  0  0  0  0  0  0  0  0  0
    4.7395    3.1473   -5.8059 C   0  0  0  0  0  0  0  0  0  0  0  0
    3.9861    2.6878   -4.7221 C   0  0  0  0  0  0  0  0  0  0  0  0
    0.6623   -1.8699   -2.5215 C   0  0  0  0  0  0  0  0  0  0  0  0
   -0.1261   -2.4683   -1.4937 C   0  0  0  0  0  0  0  0  0  0  0  0
   -0.7625   -2.9485   -0.6496 N   0  0  0  0  0  0  0  0  0  0  0  0
    1.0718   -2.7501   -3.5686 C   0  0  0  0  0  0  0  0  0  0  0  0
    1.4050   -3.4516   -4.4306 N   0  0  0  0  0  0  0  0  0  0  0  0
    0.9580   -0.8130    0.4007 H   0  0  0  0  0  0  0  0  0  0  0  0
    0.8846    0.9229    0.6713 H   0  0  0  0  0  0  0  0  0  0  0  0
    2.2883    0.2180   -0.1522 H   0  0  0  0  0  0  0  0  0  0  0  0
   -0.5905    0.2160   -1.2381 H   0  0  0  0  0  0  0  0  0  0  0  0
    0.5723    1.4232   -1.6407 H   0  0  0  0  0  0  0  0  0  0  0  0
    2.1319   -0.6302   -4.3628 H   0  0  0  0  0  0  0  0  0  0  0  0
    1.8864    2.1276   -3.0534 H   0  0  0  0  0  0  0  0  0  0  0  0
    1.7559    0.7482   -6.4269 H   0  0  0  0  0  0  0  0  0  0  0  0
    3.1117    1.5650   -8.3304 H   0  0  0  0  0  0  0  0  0  0  0  0
    5.5742    3.8244   -5.6546 H   0  0  0  0  0  0  0  0  0  0  0  0
    4.2481    3.0186   -3.7197 H   0  0  0  0  0  0  0  0  0  0  0  0
  1  2  1  0  0  0  0
  1 18  1  0  0  0  0
  1 19  1  0  0  0  0
  1 20  1  0  0  0  0
  2  3  1  0  0  0  0
  2 21  1  0  0  0  0
  2 22  1  0  0  0  0
  3  4  1  0  0  0  0
  3 13  2  0  0  0  0
  4  5  2  0  0  0  0
  4 23  1  0  0  0  0
  5  6  1  0  0  0  0
  5 24  1  0  0  0  0
  6  7  1  0  0  0  0
  6 12  2  0  0  0  0
  7  8  2  0  0  0  0
  7 25  1  0  0  0  0
  8  9  1  0  0  0  0
  8 26  1  0  0  0  0
  9 10  1  0  0  0  0
  9 11  2  0  0  0  0
 11 12  1  0  0  0  0
 11 27  1  0  0  0  0
 12 28  1  0  0  0  0
 13 14  1  0  0  0  0
 13 16  1  0  0  0  0
 14 15  3  0  0  0  0
 16 17  3  0  0  0  0
M  END
$$$$
