
 OpenBabel09252512563D

 68 74  0  0  1  0  0  0  0  0999 V2000
    0.9075   -0.0378    0.0017 H   0  0  0  0  0  0  0  0  0  0  0  0
    1.9775   -0.0378    0.0017 C   0  0  0  0  0  0  0  0  0  0  0  0
    2.3341    0.7842    0.5864 H   0  0  0  0  0  0  0  0  0  0  0  0
    2.3341   -0.9552    0.4213 H   0  0  0  0  0  0  0  0  0  0  0  0
    2.5808    0.1234   -1.6972 S   0  0  0  0  0  0  0  0  0  0  0  0
    2.0706    1.4356   -2.2974 O   0  0  0  0  0  0  0  0  0  0  0  0
   -0.5053    1.8709   -2.4965 U   0  3  0  0  0  0  0  0  0  0  0  0
    1.2241    3.8382   -2.5587 O   0  0  0  0  0  0  0  0  0  0  0  0
    1.7449    4.3570   -3.9010 S   0  0  0  0  0  0  0  0  0  0  0  0
    0.3575    4.9629   -4.8931 C   0  0  0  0  0  0  0  0  0  0  0  0
   -0.1348    5.7564   -4.3707 H   0  0  0  0  0  0  0  0  0  0  0  0
    0.7217    5.3256   -5.8315 H   0  0  0  0  0  0  0  0  0  0  0  0
   -0.3345    4.1648   -5.0634 H   0  0  0  0  0  0  0  0  0  0  0  0
    2.9156    5.7070   -3.6128 C   0  0  0  0  0  0  0  0  0  0  0  0
    2.4233    6.5006   -3.0905 H   0  0  0  0  0  0  0  0  0  0  0  0
    3.7357    5.3489   -3.0264 H   0  0  0  0  0  0  0  0  0  0  0  0
    3.2797    6.0698   -4.5513 H   0  0  0  0  0  0  0  0  0  0  0  0
    0.9895    3.6423   -1.2748 O   0  0  0  0  0  0  0  0  0  0  0  0
    0.4009    4.8157   -0.7334 C   0  0  0  0  0  0  0  0  0  0  0  0
    1.1260    5.6749   -0.1408 O   0  0  0  0  0  0  0  0  0  0  0  0
   -1.7905    2.2435   -8.0942 C   0  0  0  0  0  0  0  0  0  0  0  0
   -2.7821    1.8623   -7.9665 H   0  0  0  0  0  0  0  0  0  0  0  0
   -1.7910    2.9888   -8.8620 H   0  0  0  0  0  0  0  0  0  0  0  0
   -1.3286    2.8400   -6.8326 N   0  0  1  0  0  4  0  0  0  0  0  0
   -0.8969    4.1501   -7.4940 C   0  0  0  0  0  0  0  0  0  0  0  0
   -0.9463    4.0426   -8.5574 H   0  0  0  0  0  0  0  0  0  0  0  0
    0.1059    4.3822   -7.2018 H   0  0  0  0  0  0  0  0  0  0  0  0
   -1.8281    5.2814   -7.0565 C   0  0  0  0  0  0  0  0  0  0  0  0
   -2.7657    4.8693   -6.7466 H   0  0  0  0  0  0  0  0  0  0  0  0
   -1.9840    5.9511   -7.8764 H   0  0  0  0  0  0  0  0  0  0  0  0
   -1.1986    6.0440   -5.8892 N   0  0  1  0  0  4  0  0  0  0  0  0
   -2.3359   -0.6247   -4.3695 C   0  0  0  0  0  0  0  0  0  0  0  0
   -2.0707   -1.6613   -4.3648 H   0  0  0  0  0  0  0  0  0  0  0  0
   -2.1485   -0.2043   -3.4036 H   0  0  0  0  0  0  0  0  0  0  0  0
   -1.5037    0.1064   -5.4104 C   0  0  0  0  0  0  0  0  0  0  0  0
   -1.5733   -0.2338   -6.6329 O   0  0  0  0  0  0  0  0  0  0  0  0
   -0.6486    1.1696   -5.0168 O   0  0  0  0  0  0  0  0  0  0  0  0
   -2.2797    6.4013   -4.8686 C   0  0  0  0  0  0  0  0  0  0  0  0
   -2.7431    7.3236   -5.1506 H   0  0  0  0  0  0  0  0  0  0  0  0
   -3.0147    5.6241   -4.8419 H   0  0  0  0  0  0  0  0  0  0  0  0
   -1.6491    6.5530   -3.4833 C   0  0  0  0  0  0  0  0  0  0  0  0
   -1.7616    7.5638   -3.1506 H   0  0  0  0  0  0  0  0  0  0  0  0
   -0.6091    6.3070   -3.5367 H   0  0  0  0  0  0  0  0  0  0  0  0
   -2.3443    5.6136   -2.4972 N   0  0  2  0  0  4  0  0  0  0  0  0
   -3.0792    6.2366   -2.1623 H   0  0  0  0  0  0  0  0  0  0  0  0
   -1.6163    4.2682   -2.4669 C   0  0  0  0  0  0  0  0  0  0  0  0
   -1.2211    4.0992   -1.4870 H   0  0  0  0  0  0  0  0  0  0  0  0
   -0.8167    4.2795   -3.1778 H   0  0  0  0  0  0  0  0  0  0  0  0
   -2.5972    3.1473   -2.8206 C   0  0  0  0  0  0  0  0  0  0  0  0
   -3.1729    3.4388   -3.6741 H   0  0  0  0  0  0  0  0  0  0  0  0
   -3.2476    2.9695   -1.9898 H   0  0  0  0  0  0  0  0  0  0  0  0
   -1.8273    1.8666   -3.1454 N   0  0  1  0  0  4  0  0  0  0  0  0
   -2.5207    0.6672   -2.5253 C   0  0  0  0  0  0  0  0  0  0  0  0
   -3.4475    0.9411   -2.0660 H   0  0  0  0  0  0  0  0  0  0  0  0
   -2.7451   -0.0627   -3.2749 H   0  0  0  0  0  0  0  0  0  0  0  0
   -1.6505    0.1661   -1.6277 C   0  0  0  0  0  0  0  0  0  0  0  0
   -1.8899   -0.8362   -0.8838 O   0  0  0  0  0  0  0  0  0  0  0  0
   -0.5031    0.8537   -1.6161 O   0  0  0  0  0  0  0  0  0  0  0  0
   -1.6915    1.6718   -4.6560 C   0  0  0  0  0  0  0  0  0  0  0  0
   -2.6499    1.4252   -5.0629 H   0  0  0  0  0  0  0  0  0  0  0  0
   -0.9972    0.8809   -4.8491 H   0  0  0  0  0  0  0  0  0  0  0  0
   -1.1875    2.9572   -5.3131 C   0  0  0  0  0  0  0  0  0  0  0  0
   -0.1590    3.1087   -5.0600 H   0  0  0  0  0  0  0  0  0  0  0  0
   -1.7656    3.7872   -4.9638 H   0  0  0  0  0  0  0  0  0  0  0  0
    4.3908    0.1234   -1.6972 C   0  0  0  0  0  0  0  0  0  0  0  0
    4.7474    0.9455   -1.1125 H   0  0  0  0  0  0  0  0  0  0  0  0
    4.7474   -0.7940   -1.2776 H   0  0  0  0  0  0  0  0  0  0  0  0
    4.7474    0.2187   -2.7015 H   0  0  0  0  0  0  0  0  0  0  0  0
  1  2  1  0  0  0  0
  2  3  1  0  0  0  0
  2  4  1  0  0  0  0
  2  5  1  0  0  0  0
  5  6  2  0  0  0  0
  5 65  1  0  0  0  0
  6  7  1  0  0  0  0
  7  8  1  0  0  0  0
  7 18  1  0  0  0  0
  7 24  1  0  0  0  0
  7 31  1  0  0  0  0
  7 37  1  0  0  0  0
  7 44  1  0  0  0  0
  7 52  1  0  0  0  0
  7 58  1  0  0  0  0
  8  9  2  0  0  0  0
  9 10  1  0  0  0  0
  9 14  1  0  0  0  0
 10 11  1  0  0  0  0
 10 12  1  0  0  0  0
 10 13  1  0  0  0  0
 14 15  1  0  0  0  0
 14 16  1  0  0  0  0
 14 17  1  0  0  0  0
 18 19  1  0  0  0  0
 19 20  2  0  0  0  0
 19 21  1  0  0  0  0
 21 22  1  0  0  0  0
 21 23  1  0  0  0  0
 24 21  1  1  0  0  0
 24 25  1  0  0  0  0
 24 62  1  0  0  0  0
 25 26  1  0  0  0  0
 25 27  1  0  0  0  0
 25 28  1  0  0  0  0
 28 29  1  0  0  0  0
 28 30  1  0  0  0  0
 31 28  1  6  0  0  0
 31 32  1  0  0  0  0
 31 38  1  0  0  0  0
 32 33  1  0  0  0  0
 32 34  1  0  0  0  0
 32 35  1  0  0  0  0
 35 36  2  0  0  0  0
 35 37  1  0  0  0  0
 38 39  1  0  0  0  0
 38 40  1  0  0  0  0
 38 41  1  0  0  0  0
 41 42  1  0  0  0  0
 41 43  1  0  0  0  0
 41 44  1  0  0  0  0
 44 45  1  1  0  0  0
 44 46  1  0  0  0  0
 46 47  1  0  0  0  0
 46 48  1  0  0  0  0
 46 49  1  0  0  0  0
 49 50  1  0  0  0  0
 49 51  1  0  0  0  0
 52 49  1  6  0  0  0
 52 53  1  0  0  0  0
 52 59  1  0  0  0  0
 53 54  1  0  0  0  0
 53 55  1  0  0  0  0
 53 56  1  0  0  0  0
 56 57  2  0  0  0  0
 56 58  1  0  0  0  0
 59 60  1  0  0  0  0
 59 61  1  0  0  0  0
 59 62  1  0  0  0  0
 62 63  1  0  0  0  0
 62 64  1  0  0  0  0
 65 66  1  0  0  0  0
 65 67  1  0  0  0  0
 65 68  1  0  0  0  0
M  CHG  1   7   1
M  END
$$$$
