
     RDKit          3D

 29 30  0  0  0  0  0  0  0  0999 V2000
    2.6137    0.7305   -0.1290 C   0  0  0  0  0  0  0  0  0  0  0  0
    1.2693    0.4529    0.3295 N   0  0  0  0  0  0  0  0  0  0  0  0
    0.0929    0.8546   -0.3232 C   0  0  0  0  0  0  0  0  0  0  0  0
    0.2145    2.9711   -0.9399 Au  0  0  0  0  0  3  0  0  0  0  0  0
    0.6536    4.2693   -1.1552 Cl  0  0  0  0  0  0  0  0  0  0  0  0
   -1.1528    0.3100   -0.7069 N   0  0  0  0  0  0  0  0  0  0  0  0
   -2.4271    0.9560   -0.4443 C   0  0  0  0  0  0  0  0  0  0  0  0
   -3.1507   -0.1559    0.3170 C   0  0  0  0  0  0  0  0  0  0  0  0
   -2.8822   -1.3200   -0.6146 C   0  0  0  0  0  0  0  0  0  0  0  0
   -1.6698   -0.8500   -1.3746 C   0  0  0  0  0  0  0  0  0  0  0  0
    1.3833   -0.3018    1.5631 C   0  0  0  0  0  0  0  0  0  0  0  0
    2.4134   -1.3508    1.1241 C   0  0  0  0  0  0  0  0  0  0  0  0
    3.3985   -0.4617    0.3821 C   0  0  0  0  0  0  0  0  0  0  0  0
    2.9547    1.6139    0.4656 H   0  0  0  0  0  0  0  0  0  0  0  0
    2.6992    0.8902   -1.2141 H   0  0  0  0  0  0  0  0  0  0  0  0
   -2.3137    1.8593    0.1907 H   0  0  0  0  0  0  0  0  0  0  0  0
   -2.9990    1.1435   -1.3629 H   0  0  0  0  0  0  0  0  0  0  0  0
   -4.2096    0.0587    0.4843 H   0  0  0  0  0  0  0  0  0  0  0  0
   -2.6250   -0.3127    1.2803 H   0  0  0  0  0  0  0  0  0  0  0  0
   -2.6941   -2.2391   -0.0311 H   0  0  0  0  0  0  0  0  0  0  0  0
   -3.7438   -1.3934   -1.2900 H   0  0  0  0  0  0  0  0  0  0  0  0
   -0.9445   -1.6840   -1.4308 H   0  0  0  0  0  0  0  0  0  0  0  0
   -1.9546   -0.6413   -2.4371 H   0  0  0  0  0  0  0  0  0  0  0  0
    0.4466   -0.7746    1.8868 H   0  0  0  0  0  0  0  0  0  0  0  0
    1.8468    0.3665    2.3090 H   0  0  0  0  0  0  0  0  0  0  0  0
    1.8786   -2.0493    0.4568 H   0  0  0  0  0  0  0  0  0  0  0  0
    2.8548   -1.7972    2.0182 H   0  0  0  0  0  0  0  0  0  0  0  0
    3.8673   -0.9733   -0.4582 H   0  0  0  0  0  0  0  0  0  0  0  0
    4.1797   -0.1711    1.1042 H   0  0  0  0  0  0  0  0  0  0  0  0
  1  2  1  0
  2  3  1  0
  3  4  2  3
  4  5  1  0
  3  6  1  0
  6  7  1  0
  7  8  1  0
  8  9  1  0
  9 10  1  0
  2 11  1  0
 11 12  1  0
 12 13  1  0
 13  1  1  0
 10  6  1  0
  1 14  1  0
  1 15  1  0
  7 16  1  0
  7 17  1  0
  8 18  1  0
  8 19  1  0
  9 20  1  0
  9 21  1  0
 10 22  1  0
 10 23  1  0
 11 24  1  0
 11 25  1  0
 12 26  1  0
 12 27  1  0
 13 28  1  0
 13 29  1  0
M  END
