
     RDKit          3D

 32 35  0  0  0  0  0  0  0  0999 V2000
    0.2070   -3.7593   -1.0815 O   0  0  0  0  0  0  0  0  0  0  0  0
    0.5687   -2.6629   -0.6645 C   0  0  0  0  0  0  0  0  0  0  0  0
    1.8654   -2.4441   -0.3088 N   0  0  0  0  0  0  0  0  0  0  0  0
    2.3123   -1.2594    0.2752 C   0  0  0  0  0  0  0  0  0  0  0  0
    3.6298   -1.1967    0.7395 C   0  0  0  0  0  0  0  0  0  0  0  0
    4.0674   -0.0675    1.4256 C   0  0  0  0  0  0  0  0  0  0  0  0
    3.1821    0.9791    1.6633 C   0  0  0  0  0  0  0  0  0  0  0  0
    1.8684    0.9121    1.1851 C   0  0  0  0  0  0  0  0  0  0  0  0
    1.4211   -0.1889    0.4395 C   0  0  0  0  0  0  0  0  0  0  0  0
    0.0403   -0.2914   -0.1178 C   0  0  0  0  0  0  0  0  0  0  0  0
   -0.3699   -1.5087   -0.5523 C   0  0  0  0  0  0  0  0  0  0  0  0
   -1.7968   -1.7999   -0.9502 C   0  0  0  0  0  0  0  0  0  0  0  0
   -2.7759   -0.9129   -0.1786 C   0  0  0  0  0  0  0  0  0  0  0  0
   -2.3379    0.5234   -0.2734 C   0  0  0  0  0  0  0  0  0  0  0  0
   -3.2889    1.5487   -0.3751 C   0  0  0  0  0  0  0  0  0  0  0  0
   -2.8785    2.8675   -0.5471 C   0  0  0  0  0  0  0  0  0  0  0  0
   -1.5218    3.1629   -0.6341 C   0  0  0  0  0  0  0  0  0  0  0  0
   -0.5720    2.1440   -0.5126 C   0  0  0  0  0  0  0  0  0  0  0  0
   -0.9582    0.8160   -0.2796 C   0  0  0  0  0  0  0  0  0  0  0  0
    2.4824   -3.2397   -0.3945 H   0  0  0  0  0  0  0  0  0  0  0  0
    4.3130   -2.0285    0.5928 H   0  0  0  0  0  0  0  0  0  0  0  0
    5.0872   -0.0153    1.7981 H   0  0  0  0  0  0  0  0  0  0  0  0
    3.5074    1.8482    2.2302 H   0  0  0  0  0  0  0  0  0  0  0  0
    1.1995    1.7315    1.4325 H   0  0  0  0  0  0  0  0  0  0  0  0
   -1.9025   -1.6425   -2.0312 H   0  0  0  0  0  0  0  0  0  0  0  0
   -2.0639   -2.8430   -0.7457 H   0  0  0  0  0  0  0  0  0  0  0  0
   -2.8139   -1.2038    0.8786 H   0  0  0  0  0  0  0  0  0  0  0  0
   -3.7810   -1.0432   -0.5963 H   0  0  0  0  0  0  0  0  0  0  0  0
   -4.3515    1.3197   -0.3439 H   0  0  0  0  0  0  0  0  0  0  0  0
   -3.6163    3.6602   -0.6389 H   0  0  0  0  0  0  0  0  0  0  0  0
   -1.1988    4.1867   -0.8048 H   0  0  0  0  0  0  0  0  0  0  0  0
    0.4758    2.4078   -0.6295 H   0  0  0  0  0  0  0  0  0  0  0  0
  1  2  2  0
  2  3  1  0
  3  4  1  0
  4  5  2  0
  5  6  1  0
  6  7  2  0
  7  8  1  0
  8  9  2  0
  9 10  1  0
 10 11  2  0
 11 12  1  0
 12 13  1  0
 13 14  1  0
 14 15  2  0
 15 16  1  0
 16 17  2  0
 17 18  1  0
 18 19  2  0
 11  2  1  0
 19 14  1  0
  9  4  1  0
 19 10  1  0
  3 20  1  0
  5 21  1  0
  6 22  1  0
  7 23  1  0
  8 24  1  0
 12 25  1  0
 12 26  1  0
 13 27  1  0
 13 28  1  0
 15 29  1  0
 16 30  1  0
 17 31  1  0
 18 32  1  0
M  END
