
 OpenBabel09252518403D

 26 26  0  0  0  0  0  0  0  0999 V2000
    3.1275   -0.0147    0.6977 H   0  0  0  0  0  0  0  0  0  0  0  0
    2.8549   -0.3096   -0.3098 C   0  0  0  0  0  3  0  0  0  0  0  0
    2.1359   -1.5636   -0.5101 C   0  0  0  0  0  3  0  0  0  0  0  0
    1.9391   -2.2004    0.3457 H   0  0  0  0  0  0  0  0  0  0  0  0
    1.8580   -2.0358   -1.8693 C   0  0  0  0  0  3  0  0  0  0  0  0
    1.5136   -3.4385   -2.1014 N   0  0  0  0  0  0  0  0  0  0  0  0
    1.4580   -4.1862   -1.1153 O   0  0  0  0  0  0  0  0  0  0  0  0
    1.3084   -3.7936   -3.2700 O   0  0  0  0  0  0  0  0  0  0  0  0
    2.1273   -1.1503   -3.0049 C   0  0  0  0  0  3  0  0  0  0  0  0
    1.9315   -1.4795   -4.0198 H   0  0  0  0  0  0  0  0  0  0  0  0
    2.8698    0.0878   -2.7971 C   0  0  0  0  0  3  0  0  0  0  0  0
    3.2186    0.6483   -3.6591 H   0  0  0  0  0  0  0  0  0  0  0  0
    3.4001    0.4160   -1.4663 C   0  0  0  0  0  3  0  0  0  0  0  0
    4.6849    1.1650   -1.3728 C   0  0  0  0  0  0  0  0  0  0  0  0
    5.4249    1.3446   -2.3300 O   0  0  0  0  0  0  0  0  0  0  0  0
    4.9351    1.5219   -0.0898 O   0  0  0  0  0  0  0  0  0  0  0  0
    6.2913    1.9013    0.2115 C   0  0  0  0  0  0  0  0  0  0  0  0
    6.9759    1.1620   -0.2230 H   0  0  0  0  0  0  0  0  0  0  0  0
    6.6219    3.2980   -0.3022 C   0  0  0  0  0  0  0  0  0  0  0  0
    5.9019    4.0348    0.0678 H   0  0  0  0  0  0  0  0  0  0  0  0
    7.6281    3.5986    0.0076 H   0  0  0  0  0  0  0  0  0  0  0  0
    6.5845    3.3416   -1.3946 H   0  0  0  0  0  0  0  0  0  0  0  0
    6.4258    1.8493    1.7299 C   0  0  0  0  0  0  0  0  0  0  0  0
    5.7640    2.5817    2.2062 H   0  0  0  0  0  0  0  0  0  0  0  0
    6.1277    0.8654    2.1086 H   0  0  0  0  0  0  0  0  0  0  0  0
    7.4539    2.0493    2.0458 H   0  0  0  0  0  0  0  0  0  0  0  0
  1  2  1  0  0  0  0
  2  3  1  0  0  0  0
  2 13  1  0  0  0  0
  3  4  1  0  0  0  0
  3  5  1  0  0  0  0
  5  6  1  0  0  0  0
  5  9  1  0  0  0  0
  6  7  2  0  0  0  0
  6  8  2  0  0  0  0
  9 10  1  0  0  0  0
  9 11  1  0  0  0  0
 11 12  1  0  0  0  0
 11 13  1  0  0  0  0
 13 14  1  0  0  0  0
 14 15  2  0  0  0  0
 14 16  1  0  0  0  0
 16 17  1  0  0  0  0
 17 18  1  0  0  0  0
 17 19  1  0  0  0  0
 17 23  1  0  0  0  0
 19 20  1  0  0  0  0
 19 21  1  0  0  0  0
 19 22  1  0  0  0  0
 23 24  1  0  0  0  0
 23 25  1  0  0  0  0
 23 26  1  0  0  0  0
M  END
$$$$
