
     RDKit          3D

 57 60  0  0  0  0  0  0  0  0999 V2000
    4.6432    2.0566    0.4166 C   0  0  0  0  0  0  0  0  0  0  0  0
    3.6393    1.2731   -0.2106 O   0  0  0  0  0  0  0  0  0  0  0  0
    3.5229    1.3677   -1.5753 C   0  0  0  0  0  0  0  0  0  0  0  0
    4.4128    2.0652   -2.4008 C   0  0  0  0  0  0  0  0  0  0  0  0
    4.2170    2.1007   -3.7856 C   0  0  0  0  0  0  0  0  0  0  0  0
    3.1332    1.4396   -4.3591 C   0  0  0  0  0  0  0  0  0  0  0  0
    2.2413    0.7396   -3.5481 C   0  0  0  0  0  0  0  0  0  0  0  0
    2.4319    0.7004   -2.1612 C   0  0  0  0  0  0  0  0  0  0  0  0
    1.4829   -0.0155   -1.3601 C   0  0  0  0  0  0  0  0  0  0  0  0
    0.6777   -0.5849   -0.6735 C   0  0  0  0  0  0  0  0  0  0  0  0
   -0.2952   -1.2274    0.1654 C   0  0  0  0  0  0  0  0  0  0  0  0
   -1.5701   -0.7762    0.2439 C   0  0  0  0  0  0  0  0  0  0  0  0
   -1.8880    0.3412   -0.6554 N   0  0  0  0  0  0  0  0  0  0  0  0
   -1.4766    1.6531   -0.1851 C   0  0  0  0  0  0  0  0  0  0  0  0
   -1.0598    2.5738   -1.1532 C   0  0  0  0  0  0  0  0  0  0  0  0
   -0.7011    3.8718   -0.7887 C   0  0  0  0  0  0  0  0  0  0  0  0
   -0.7839    4.2676    0.5463 C   0  0  0  0  0  0  0  0  0  0  0  0
   -1.2302    3.3681    1.5133 C   0  0  0  0  0  0  0  0  0  0  0  0
   -1.5862    2.0662    1.1486 C   0  0  0  0  0  0  0  0  0  0  0  0
   -3.5799    0.2219   -1.0076 S   0  0  0  0  0  0  0  0  0  0  0  0
   -3.7715   -0.6175   -2.1716 O   0  0  0  0  0  0  0  0  0  0  0  0
   -4.2625    1.4826   -0.8284 O   0  0  0  0  0  0  0  0  0  0  0  0
   -3.9411   -0.7751    0.3800 C   0  0  0  0  0  0  0  0  0  0  0  0
   -5.2181   -0.9848    0.8824 C   0  0  0  0  0  0  0  0  0  0  0  0
   -5.3319   -1.7232    2.0546 C   0  0  0  0  0  0  0  0  0  0  0  0
   -4.1808   -2.2025    2.6904 C   0  0  0  0  0  0  0  0  0  0  0  0
   -2.9044   -1.9545    2.1590 C   0  0  0  0  0  0  0  0  0  0  0  0
   -2.7707   -1.2501    0.9701 C   0  0  0  0  0  0  0  0  0  0  0  0
    0.4870   -2.7251    1.0073 Si  0  0  0  0  0  4  0  0  0  0  0  0
   -0.5693   -4.2621    0.7966 C   0  0  0  0  0  0  0  0  0  0  0  0
    2.1704   -3.1548    0.2351 C   0  0  0  0  0  0  0  0  0  0  0  0
    0.8098   -2.3509    2.8209 C   0  0  0  0  0  0  0  0  0  0  0  0
    4.5061    3.1224    0.2064 H   0  0  0  0  0  0  0  0  0  0  0  0
    4.5485    1.9155    1.4972 H   0  0  0  0  0  0  0  0  0  0  0  0
    5.6421    1.7209    0.1251 H   0  0  0  0  0  0  0  0  0  0  0  0
    5.2726    2.5902   -1.9981 H   0  0  0  0  0  0  0  0  0  0  0  0
    4.9149    2.6458   -4.4169 H   0  0  0  0  0  0  0  0  0  0  0  0
    2.9818    1.4691   -5.4354 H   0  0  0  0  0  0  0  0  0  0  0  0
    1.3946    0.2265   -3.9993 H   0  0  0  0  0  0  0  0  0  0  0  0
   -0.9999    2.2730   -2.1964 H   0  0  0  0  0  0  0  0  0  0  0  0
   -0.3621    4.5735   -1.5469 H   0  0  0  0  0  0  0  0  0  0  0  0
   -0.5101    5.2799    0.8319 H   0  0  0  0  0  0  0  0  0  0  0  0
   -1.3068    3.6823    2.5503 H   0  0  0  0  0  0  0  0  0  0  0  0
   -1.9467    1.3943    1.9192 H   0  0  0  0  0  0  0  0  0  0  0  0
   -6.0909   -0.5715    0.3860 H   0  0  0  0  0  0  0  0  0  0  0  0
   -6.3115   -1.9119    2.4880 H   0  0  0  0  0  0  0  0  0  0  0  0
   -4.2759   -2.7574    3.6219 H   0  0  0  0  0  0  0  0  0  0  0  0
   -2.0483   -2.3072    2.7180 H   0  0  0  0  0  0  0  0  0  0  0  0
   -0.0801   -5.1222    1.2680 H   0  0  0  0  0  0  0  0  0  0  0  0
   -0.6984   -4.4888   -0.2678 H   0  0  0  0  0  0  0  0  0  0  0  0
   -1.5614   -4.1601    1.2395 H   0  0  0  0  0  0  0  0  0  0  0  0
    2.8800   -2.3334    0.3705 H   0  0  0  0  0  0  0  0  0  0  0  0
    2.5827   -4.0465    0.7169 H   0  0  0  0  0  0  0  0  0  0  0  0
    2.0619   -3.3572   -0.8331 H   0  0  0  0  0  0  0  0  0  0  0  0
    0.8965   -3.2807    3.3928 H   0  0  0  0  0  0  0  0  0  0  0  0
    0.0154   -1.7466    3.2638 H   0  0  0  0  0  0  0  0  0  0  0  0
    1.7468   -1.7944    2.9324 H   0  0  0  0  0  0  0  0  0  0  0  0
  1  2  1  0
  2  3  1  0
  3  4  2  0
  4  5  1  0
  5  6  2  0
  6  7  1  0
  7  8  2  0
  8  9  1  0
  9 10  3  0
 10 11  1  0
 11 12  2  3
 12 13  1  0
 13 14  1  0
 14 15  2  0
 15 16  1  0
 16 17  2  0
 17 18  1  0
 18 19  2  0
 13 20  1  0
 20 21  2  0
 20 22  2  0
 20 23  1  0
 23 24  2  0
 24 25  1  0
 25 26  2  0
 26 27  1  0
 27 28  2  0
 11 29  1  0
 29 30  1  0
 29 31  1  0
 29 32  1  0
  8  3  1  0
 28 12  1  0
 19 14  1  0
 28 23  1  0
  1 33  1  0
  1 34  1  0
  1 35  1  0
  4 36  1  0
  5 37  1  0
  6 38  1  0
  7 39  1  0
 15 40  1  0
 16 41  1  0
 17 42  1  0
 18 43  1  0
 19 44  1  0
 24 45  1  0
 25 46  1  0
 26 47  1  0
 27 48  1  0
 30 49  1  0
 30 50  1  0
 30 51  1  0
 31 52  1  0
 31 53  1  0
 31 54  1  0
 32 55  1  0
 32 56  1  0
 32 57  1  0
M  END
