
  --CCDC--092525    3D                              

 34 33  0  0  0  0  0  0  0  0999 V2000
    0.0002    0.0001    0.0001 Br     0
    1.6398    2.8407   -0.0001 La     0
    0.4587    4.8640    2.2954 Br     0
    1.9762    5.6832   -1.6020 Br     0
    3.7231    1.1423   -0.5814 N      0
    4.5874    0.4376   -0.8228 C      0
    5.7047   -0.4362   -1.1531 C      0
    1.9254    1.6514    2.4630 N      0
    2.0440    1.1579    3.4850 C      0
    2.1616    0.5293    4.7934 C      0
   -1.0092    3.3442   -0.5384 N      0
   -2.1096    3.5473   -0.7613 C      0
   -3.5118    3.7843   -1.0752 C      0
    1.6487    2.3396   -2.7038 N      0
    1.6524    2.1316   -3.8256 C      0
    1.6276    1.8877   -5.2611 C      0
    3.9951    4.0270    0.7790 N      0
    4.9713    4.5229    1.0993 C      0
    6.2291    5.1549    1.4725 C      0
    5.8188   -0.5255   -2.2313 H      0
    5.5483   -1.4325   -0.7450 H      0
    6.6341   -0.0447   -0.7450 H      0
    1.1787    0.3274    5.2139 H      0
    2.6997    1.1748    5.4845 H      0
    2.6997   -0.4135    4.7215 H      0
   -4.0445    2.8430   -1.1941 H      0
   -3.6103    4.3487   -1.9999 H      0
   -3.9946    4.3486   -0.2802 H      0
    0.6037    1.8259   -5.6239 H      0
    2.1295    0.9530   -5.5018 H      0
    2.1295    2.6901   -5.7974 H      0
    6.7947    5.4399    0.5878 H      0
    6.8411    4.4769    2.0628 H      0
    6.0491    6.0510    2.0628 H      0
  1  2  1
  2  3  1
  2  4  1
  2  5  1
  5  6  3
  6  7  1
  2  8  1
  8  9  3
  9 10  1
  2 11  1
 11 12  3
 12 13  1
  2 14  1
 14 15  3
 15 16  1
  2 17  1
 17 18  3
 18 19  1
  7 20  1
  7 21  1
  7 22  1
 10 23  1
 10 24  1
 10 25  1
 13 26  1
 13 27  1
 13 28  1
 16 29  1
 16 30  1
 16 31  1
 19 32  1
 19 33  1
 19 34  1
M  END
$$$$
