
     RDKit          3D

  0  0  0  0  0  0  0  0  0  0999 V3000
M  V30 BEGIN CTAB
M  V30 COUNTS 114 121 0 0 0
M  V30 BEGIN ATOM
M  V30 1 C 5.169525 0.375024 1.884774 0
M  V30 2 C 4.093438 0.141542 2.656149 0
M  V30 3 C 2.861612 -0.003308 2.103692 0
M  V30 4 C 1.812796 -0.006114 3.159791 0
M  V30 5 C 2.424625 -0.499785 4.460838 0
M  V30 6 C 1.533148 1.492216 3.511941 0
M  V30 7 C 2.621360 0.070509 0.721399 0
M  V30 8 N 1.264167 -0.117842 0.180506 0
M  V30 9 C 0.726838 1.217542 -0.103822 0
M  V30 10 C -0.594872 1.200462 -0.308337 0
M  V30 11 C -1.000857 2.614855 -0.597349 0
M  V30 12 C -2.177728 3.256930 -0.886547 0
M  V30 13 C -2.269308 4.602640 -1.106602 0
M  V30 14 C -1.154925 5.415687 -1.048963 0
M  V30 15 C 0.035322 4.793218 -0.761180 0
M  V30 16 C 1.204315 5.471692 -0.655084 0
M  V30 17 C 2.348104 4.744121 -0.345509 0
M  V30 18 C 2.274395 3.390723 -0.162960 0
M  V30 19 C 1.126779 2.646794 -0.258704 0
M  V30 20 C 0.066131 3.467264 -0.557013 0
M  V30 21 N -1.267581 -0.096903 -0.133980 0
M  V30 22 C -2.735431 0.163934 0.143331 0
M  V30 23 C -3.855293 0.134066 -0.632985 0
M  V30 24 C -3.866808 -0.160062 -2.049469 0
M  V30 25 C -4.993568 0.667058 -2.761502 0
M  V30 26 C -4.452636 -1.579712 -2.214379 0
M  V30 27 C -5.088723 0.414443 -0.140810 0
M  V30 28 C -5.251255 0.742125 1.163432 0
M  V30 29 C -4.156178 0.793887 1.991872 0
M  V30 30 C -2.866789 0.513714 1.521204 0
M  V30 31 C -1.938312 0.917064 2.613500 0
M  V30 32 C -2.564606 0.602660 3.948700 0
M  V30 33 C -1.870059 2.480833 2.633761 0
M  V30 34 Eu 0.062361 -1.611303 -0.224231 0 VAL=7
M  V30 35 N -0.671711 -1.734117 1.596817 0
M  V30 36 C -1.457541 -2.267726 2.362435 0
M  V30 37 S -2.493283 -3.060555 3.230023 0
M  V30 38 O 1.368487 -2.631549 -1.272110 0
M  V30 39 C 2.244389 -2.297086 -2.216579 0
M  V30 40 C 1.811408 -3.946920 -1.017120 0
M  V30 41 C 0.790400 -4.384531 -0.037110 0
M  V30 42 O 0.814210 -3.199708 0.665441 0
M  V30 43 C 1.917200 -3.236658 1.499582 0
M  V30 44 O -1.460460 -2.618631 -1.084663 0
M  V30 45 C -2.122659 -3.468878 -0.244978 0
M  V30 46 C -1.318403 -3.309010 -2.290752 0
M  V30 47 C -1.086392 -2.082562 -3.158040 0
M  V30 48 O -0.378916 -1.354045 -2.216610 0
M  V30 49 C -0.013806 -0.220088 -2.876289 0
M  V30 50 C 3.723823 0.330412 -0.149436 0
M  V30 51 C 3.791528 0.453006 -1.542680 0
M  V30 52 C 3.388442 1.247414 -2.659347 0
M  V30 53 C 4.963444 -0.459682 -2.041192 0
M  V30 54 C 4.954469 0.460251 0.558901 0
M  V30 55 H 6.162377 0.484190 2.284552 0
M  V30 56 H 4.342802 0.097221 3.700856 0
M  V30 57 H 0.908315 -0.485349 2.953616 0
M  V30 58 H 2.945171 0.286615 5.030465 0
M  V30 59 H 3.121039 -1.348214 4.316160 0
M  V30 60 H 1.575163 -0.932665 5.060708 0
M  V30 61 H 1.528615 2.086895 2.598745 0
M  V30 62 H 2.372863 1.884457 4.125323 0
M  V30 63 H 0.633808 1.490459 4.120394 0
M  V30 64 H -3.033669 2.609289 -0.931158 0
M  V30 65 H -3.272948 4.941837 -1.319532 0
M  V30 66 H -1.236071 6.467400 -1.218118 0
M  V30 67 H 1.221122 6.543020 -0.810361 0
M  V30 68 H 3.320081 5.237196 -0.242945 0
M  V30 69 H 3.132601 2.798339 0.090618 0
M  V30 70 H -3.025710 -0.031467 -2.628723 0
M  V30 71 H -4.900005 1.701735 -2.387126 0
M  V30 72 H -5.939844 0.169181 -2.630496 0
M  V30 73 H -4.684667 0.694502 -3.829790 0
M  V30 74 H -4.253963 -2.138360 -1.289731 0
M  V30 75 H -5.590210 -1.425831 -2.296004 0
M  V30 76 H -4.073087 -2.023190 -3.132754 0
M  V30 77 H -5.984577 0.398924 -0.730169 0
M  V30 78 H -6.244586 0.948231 1.523525 0
M  V30 79 H -4.470383 1.075977 3.013410 0
M  V30 80 H -0.966432 0.522738 2.619441 0
M  V30 81 H -1.781672 0.341109 4.703185 0
M  V30 82 H -3.106659 1.464849 4.382338 0
M  V30 83 H -3.272228 -0.249182 3.861051 0
M  V30 84 H -2.723443 2.851799 2.085718 0
M  V30 85 H -1.883798 2.853727 3.677802 0
M  V30 86 H -0.868779 2.741253 2.238284 0
M  V30 87 H 2.051471 -3.018998 -3.097535 0
M  V30 88 H 3.294322 -2.515840 -1.880318 0
M  V30 89 H 2.153324 -1.333348 -2.632152 0
M  V30 90 H 1.728918 -4.532437 -1.992961 0
M  V30 91 H 2.782144 -3.905967 -0.637733 0
M  V30 92 H -0.120131 -4.746622 -0.433177 0
M  V30 93 H 1.199562 -5.106875 0.718221 0
M  V30 94 H 2.010806 -2.436729 2.215347 0
M  V30 95 H 1.775399 -4.209488 2.057303 0
M  V30 96 H 2.858568 -3.345600 0.946102 0
M  V30 97 H -2.962832 -3.854168 -0.780541 0
M  V30 98 H -2.779291 -2.672798 0.398404 0
M  V30 99 H -1.702016 -4.072486 0.492148 0
M  V30 100 H -0.561539 -4.044700 -2.399591 0
M  V30 101 H -2.345132 -3.571254 -2.495000 0
M  V30 102 H -0.292514 -2.351622 -3.923254 0
M  V30 103 H -1.890227 -1.558910 -3.538159 0
M  V30 104 H 0.588717 0.510375 -2.344233 0
M  V30 105 H -0.932689 0.321047 -3.250376 0
M  V30 106 H 0.490989 -0.489380 -3.822852 0
M  V30 107 H 4.715458 1.455951 -1.367802 0
M  V30 108 H 4.277830 1.289110 -3.387928 0
M  V30 109 H 3.190032 2.334103 -2.574403 0
M  V30 110 H 2.654349 0.768307 -3.386574 0
M  V30 111 H 4.626814 -0.957137 -3.004342 0
M  V30 112 H 5.837165 0.107060 -2.343190 0
M  V30 113 H 5.211706 -1.231654 -1.318510 0
M  V30 114 H 5.902950 0.638064 -0.007931 0
M  V30 END ATOM
M  V30 BEGIN BOND
M  V30 1 2 1 2
M  V30 2 1 2 3
M  V30 3 1 3 4
M  V30 4 1 4 5
M  V30 5 1 4 6
M  V30 6 2 3 7
M  V30 7 1 7 8
M  V30 8 1 8 9
M  V30 9 2 9 10
M  V30 10 1 10 11
M  V30 11 2 11 12
M  V30 12 1 12 13
M  V30 13 2 13 14
M  V30 14 1 14 15
M  V30 15 2 15 16
M  V30 16 1 16 17
M  V30 17 2 17 18
M  V30 18 1 18 19
M  V30 19 2 19 20
M  V30 20 1 10 21
M  V30 21 1 21 22
M  V30 22 2 22 23
M  V30 23 1 23 24
M  V30 24 1 24 25
M  V30 25 1 24 26
M  V30 26 1 23 27
M  V30 27 2 27 28
M  V30 28 1 28 29
M  V30 29 2 29 30
M  V30 30 1 30 31
M  V30 31 1 31 32
M  V30 32 1 31 33
M  V30 33 1 21 34
M  V30 34 1 34 35
M  V30 35 2 35 36
M  V30 36 2 36 37
M  V30 37 9 38 34
M  V30 38 1 38 39
M  V30 39 1 38 40
M  V30 40 1 40 41
M  V30 41 1 41 42
M  V30 42 1 42 43
M  V30 43 9 44 34
M  V30 44 1 44 45
M  V30 45 1 44 46
M  V30 46 1 46 47
M  V30 47 1 47 48
M  V30 48 1 48 49
M  V30 49 1 7 50
M  V30 50 1 50 51
M  V30 51 1 51 52
M  V30 52 1 51 53
M  V30 53 2 50 54
M  V30 54 1 54 1
M  V30 55 1 34 8
M  V30 56 1 19 9
M  V30 57 1 30 22
M  V30 58 9 42 34
M  V30 59 1 20 11
M  V30 60 9 48 34
M  V30 61 1 20 15
M  V30 62 1 1 55
M  V30 63 1 2 56
M  V30 64 1 4 57
M  V30 65 1 5 58
M  V30 66 1 5 59
M  V30 67 1 5 60
M  V30 68 1 6 61
M  V30 69 1 6 62
M  V30 70 1 6 63
M  V30 71 1 12 64
M  V30 72 1 13 65
M  V30 73 1 14 66
M  V30 74 1 16 67
M  V30 75 1 17 68
M  V30 76 1 18 69
M  V30 77 1 24 70
M  V30 78 1 25 71
M  V30 79 1 25 72
M  V30 80 1 25 73
M  V30 81 1 26 74
M  V30 82 1 26 75
M  V30 83 1 26 76
M  V30 84 1 27 77
M  V30 85 1 28 78
M  V30 86 1 29 79
M  V30 87 1 31 80
M  V30 88 1 32 81
M  V30 89 1 32 82
M  V30 90 1 32 83
M  V30 91 1 33 84
M  V30 92 1 33 85
M  V30 93 1 33 86
M  V30 94 1 39 87
M  V30 95 1 39 88
M  V30 96 1 39 89
M  V30 97 1 40 90
M  V30 98 1 40 91
M  V30 99 1 41 92
M  V30 100 1 41 93
M  V30 101 1 43 94
M  V30 102 1 43 95
M  V30 103 1 43 96
M  V30 104 1 45 97
M  V30 105 1 45 98
M  V30 106 1 45 99
M  V30 107 1 46 100
M  V30 108 1 46 101
M  V30 109 1 47 102
M  V30 110 1 47 103
M  V30 111 1 49 104
M  V30 112 1 49 105
M  V30 113 1 49 106
M  V30 114 1 51 107
M  V30 115 1 52 108
M  V30 116 1 52 109
M  V30 117 1 52 110
M  V30 118 1 53 111
M  V30 119 1 53 112
M  V30 120 1 53 113
M  V30 121 1 54 114
M  V30 END BOND
M  V30 END CTAB
M  END
