
  --CCDC--092525    3D                              

114121  0  0  0  0  0  0  0  0999 V2000
   -0.4463    0.3131    0.1464 C      0
    0.7576    0.1635   -0.5636 O      0
    1.2659   -1.1294   -0.3160 C      0
    2.4700   -1.3643   -1.1740 C      0
    3.4178   -0.3806   -0.8366 O      0
    4.7404   -0.6635   -1.2145 C      0
    2.5682    2.1021   -0.3986 Eu     0
    1.6456    2.0346    2.0918 N      0
    1.1927    2.0358    3.3472 C      0
    0.6130    2.0374    4.9541 S      0
    4.9139    2.4031    0.7811 N      0
    5.0369    2.3425    2.2129 C      0
    4.6675    1.1790    2.9346 C      0
    4.8497    1.1701    4.3196 C      0
    5.3323    2.2693    4.9965 C      0
    5.6509    3.4100    4.2932 C      0
    5.5214    3.4832    2.9072 C      0
    5.8730    4.8315    2.2877 C      0
    4.9445    5.9181    2.8262 C      0
    7.3147    5.2439    2.5997 C      0
    4.0942   -0.0760    2.2930 C      0
    2.8878   -0.6511    3.0409 C      0
    5.1560   -1.1693    2.2033 C      0
    5.9927    2.6876   -0.1179 C      0
    5.8191    2.8773   -1.5107 C      0
    4.5164    2.6490   -2.1370 N      0
    4.1622    2.7729   -3.5361 C      0
    2.8483    2.7319   -4.0340 C      0
    2.4440    3.9172   -4.6412 C      0
    3.4105    4.7876   -5.1176 C      0
    4.7127    4.3195   -5.1947 C      0
    5.0442    3.1201   -4.5694 C      0
    6.1396    2.2469   -5.1679 C      0
    6.9387    3.0803   -6.1685 C      0
    5.6064    1.0230   -5.9070 C      0
    1.9953    1.4854   -4.2184 C      0
    0.5887    1.8718   -4.6753 C      0
    2.5794    0.5851   -5.2970 C      0
    7.1371    3.3550   -2.0183 C      0
    7.6961    3.9576   -3.1302 C      0
    9.0612    4.1863   -3.2437 C      0
    9.9284    3.9318   -2.2261 C      0
    9.4185    3.4620   -0.9993 C      0
   10.1844    3.2345    0.1663 C      0
    9.5692    2.8108    1.3076 C      0
    8.1947    2.6148    1.3698 C      0
    7.4059    2.8173    0.2572 C      0
    8.0301    3.2115   -0.9329 C      0
    0.7877    3.2271   -2.0245 O      0
   -0.5126    2.6987   -2.0904 C      0
    0.7754    4.6383   -1.9678 C      0
    0.7613    5.0305   -0.5167 C      0
    2.0203    4.6659    0.0070 O      0
    3.0198    5.5996   -0.3161 C      0
   -0.6561    1.3544    0.3735 H      0
   -0.3973   -0.2283    1.0887 H      0
   -1.2810   -0.0848   -0.4273 H      0
    0.5004   -1.8867   -0.5195 H      0
    1.5385   -1.2297    0.7414 H      0
    2.8831   -2.3628   -0.9846 H      0
    2.2039   -1.3271   -2.2356 H      0
    5.0069   -1.6783   -0.9278 H      0
    5.4319    0.0189   -0.7265 H      0
    4.8799   -0.5733   -2.2880 H      0
    4.6225    0.2811    4.8970 H      0
    5.4546    2.2374    6.0748 H      0
    6.0031    4.2729    4.8468 H      0
    5.7537    4.8027    1.1984 H      0
    3.9064    5.6842    2.6009 H      0
    5.1804    6.8814    2.3793 H      0
    5.0465    6.0126    3.9046 H      0
    7.7641    4.6057    3.3561 H      0
    7.3553    6.2679    2.9641 H      0
    7.9344    5.1862    1.7071 H      0
    3.7568    0.1870    1.2858 H      0
    2.9074   -1.7400    3.0244 H      0
    1.9486   -0.3255    2.5979 H      0
    2.8953   -0.3364    4.0828 H      0
    4.7539   -2.0527    1.7127 H      0
    5.4984   -1.4560    3.1945 H      0
    6.0166   -0.8277    1.6348 H      0
    1.3902    4.1307   -4.7876 H      0
    3.1412    5.7638   -5.5059 H      0
    5.4520    4.8556   -5.7788 H      0
    6.8384    1.9236   -4.3826 H      0
    6.3454    3.2673   -7.0622 H      0
    7.8479    2.5609   -6.4665 H      0
    7.2234    4.0400   -5.7386 H      0
    4.8749    1.3160   -6.6562 H      0
    5.1368    0.3189   -5.2266 H      0
    6.4225    0.5113   -6.4123 H      0
    1.9189    0.9126   -3.2867 H      0
   -0.1296    1.1060   -4.3885 H      0
    0.5550    1.9746   -5.7583 H      0
    0.2762    2.8165   -4.2357 H      0
    3.0606    1.1613   -6.0843 H      0
    1.8018   -0.0270   -5.7472 H      0
    3.3125   -0.0744   -4.8521 H      0
    7.0724    4.2952   -3.9452 H      0
    9.4493    4.5966   -4.1704 H      0
   10.9922    4.1075   -2.3516 H      0
   11.2571    3.4002    0.1541 H      0
   10.1720    2.6297    2.1915 H      0
    7.7420    2.2980    2.3038 H      0
   -1.0321    2.8224   -1.1420 H      0
   -0.4817    1.6387   -2.3360 H      0
   -1.0921    3.1966   -2.8624 H      0
    1.6611    5.0467   -2.4671 H      0
   -0.0982    5.0411   -2.4949 H      0
    0.5881    6.1063   -0.3884 H      0
   -0.0553    4.5171    0.0070 H      0
    3.2485    5.5733   -1.3779 H      0
    3.9408    5.3799    0.2172 H      0
    2.7086    6.6094   -0.0604 H      0
  1  2  1
  2  3  1
  3  4  1
  4  5  1
  5  6  1
  5  7  1
  2  7  1
  7  8  1
  8  9  4
  9 10  4
  7 11  1
 11 12  1
 12 13  4
 13 14  4
 14 15  4
 15 16  4
 16 17  4
 12 17  4
 17 18  1
 18 19  1
 18 20  1
 13 21  1
 21 22  1
 21 23  1
 11 24  1
 24 25  2
 25 26  1
  7 26  1
 26 27  1
 27 28  4
 28 29  4
 29 30  4
 30 31  4
 31 32  4
 27 32  4
 32 33  1
 33 34  1
 33 35  1
 28 36  1
 36 37  1
 36 38  1
 25 39  1
 39 40  4
 40 41  4
 41 42  4
 42 43  4
 43 44  4
 44 45  4
 45 46  4
 46 47  4
 24 47  1
 47 48  4
 39 48  4
 43 48  4
  7 49  1
 49 50  1
 49 51  1
 51 52  1
 52 53  1
  7 53  1
 53 54  1
  1 55  1
  1 56  1
  1 57  1
  3 58  1
  3 59  1
  4 60  1
  4 61  1
  6 62  1
  6 63  1
  6 64  1
 14 65  1
 15 66  1
 16 67  1
 18 68  1
 19 69  1
 19 70  1
 19 71  1
 20 72  1
 20 73  1
 20 74  1
 21 75  1
 22 76  1
 22 77  1
 22 78  1
 23 79  1
 23 80  1
 23 81  1
 29 82  1
 30 83  1
 31 84  1
 33 85  1
 34 86  1
 34 87  1
 34 88  1
 35 89  1
 35 90  1
 35 91  1
 36 92  1
 37 93  1
 37 94  1
 37 95  1
 38 96  1
 38 97  1
 38 98  1
 40 99  1
 41100  1
 42101  1
 44102  1
 45103  1
 46104  1
 50105  1
 50106  1
 50107  1
 51108  1
 51109  1
 52110  1
 52111  1
 54112  1
 54113  1
 54114  1
M  END
$$$$
