
 OpenBabel09252513433D

 76 82  0  0  1  0  0  0  0  0999 V2000
    0.9935    0.0928    0.0368 H   0  0  0  0  0  0  0  0  0  0  0  0
    2.0635    0.0928    0.0368 C   0  0  0  0  0  3  0  0  0  0  0  0
    2.5758   -1.2902   -0.3724 C   0  0  0  0  0  3  0  0  0  0  0  0
    2.1866   -2.0276    0.2983 H   0  0  0  0  0  0  0  0  0  0  0  0
    2.1455   -1.5823   -1.7036 C   0  0  0  0  0  3  0  0  0  0  0  0
    2.4858   -2.5641   -1.9589 H   0  0  0  0  0  0  0  0  0  0  0  0
    2.6329   -0.6683   -2.6876 C   0  0  0  0  0  3  0  0  0  0  0  0
    4.4629   -0.6725   -2.6710 P   0  0  0  0  0  0  0  0  0  0  0  0
    4.4507   -2.2426   -1.7310 C   0  0  0  0  0  3  0  0  0  0  0  0
    3.7087   -2.0323   -0.4091 C   0  0  0  0  0  3  0  0  0  0  0  0
    4.1797   -1.2463    0.1433 H   0  0  0  0  0  0  0  0  0  0  0  0
    2.3501   -1.6785   -0.6771 C   0  0  0  0  0  3  0  0  0  0  0  0
    1.8575   -1.5050    0.2568 H   0  0  0  0  0  0  0  0  0  0  0  0
    1.6182   -2.6757   -1.3920 C   0  0  0  0  0  3  0  0  0  0  0  0
    1.6181   -3.5879   -0.8327 H   0  0  0  0  0  0  0  0  0  0  0  0
    2.2757   -2.9121   -2.7537 C   0  0  0  0  0  3  0  0  0  0  0  0
    1.7540   -3.6884   -3.2734 H   0  0  0  0  0  0  0  0  0  0  0  0
    3.7348   -3.3278   -2.5418 C   0  0  0  0  0  3  0  0  0  0  0  0
    3.7696   -4.2551   -2.0091 H   0  0  0  0  0  0  0  0  0  0  0  0
    4.4585    0.9266   -1.7814 C   0  0  0  0  0  3  0  0  0  0  0  0
    3.7418    1.9839   -2.6245 C   0  0  0  0  0  3  0  0  0  0  0  0
    4.2259    2.0707   -3.5748 H   0  0  0  0  0  0  0  0  0  0  0  0
    2.3799    1.5959   -2.8172 C   0  0  0  0  0  3  0  0  0  0  0  0
    1.9053    2.3301   -3.4342 H   0  0  0  0  0  0  0  0  0  0  0  0
    1.6311    1.4754   -1.6064 C   0  0  0  0  0  3  0  0  0  0  0  0
    1.6380    2.4114   -1.0880 H   0  0  0  0  0  0  0  0  0  0  0  0
    2.2624    0.3975   -0.7220 C   0  0  0  0  0  3  0  0  0  0  0  0
    1.7283    0.3352    0.2031 H   0  0  0  0  0  0  0  0  0  0  0  0
    3.7236    0.7659   -0.4466 C   0  0  0  0  0  3  0  0  0  0  0  0
    3.7823    2.0725    0.3278 C   0  0  0  0  0  0  0  0  0  0  0  0
    4.9456    2.5804    0.6739 N   0  0  0  0  0  0  0  0  0  0  0  0
    5.0023    3.8441    1.4229 C   0  0  0  0  0  3  0  0  0  0  0  0
    6.4362    4.3707    1.3289 C   0  0  0  0  0  3  0  0  0  0  0  0
    7.1127    3.6331    1.7075 H   0  0  0  0  0  0  0  0  0  0  0  0
    6.7518    4.6506   -0.0366 C   0  0  0  0  0  3  0  0  0  0  0  0
    7.7666    4.9866   -0.0849 H   0  0  0  0  0  0  0  0  0  0  0  0
    5.9203    5.6466   -0.6348 C   0  0  0  0  0  3  0  0  0  0  0  0
    6.0031    6.5593   -0.0825 H   0  0  0  0  0  0  0  0  0  0  0  0
    4.4654    5.1716   -0.6203 C   0  0  0  0  0  3  0  0  0  0  0  0
    3.8358    5.9339   -1.0295 H   0  0  0  0  0  0  0  0  0  0  0  0
    4.0462    4.8809    0.8241 C   0  0  1  0  0  0  0  0  0  0  0  0
    4.0897    5.7827    1.3985 H   0  0  0  0  0  0  0  0  0  0  0  0
    4.4839   -0.7096   -5.0007 Co  0  0  0  0  0  0  0  0  0  0  0  0
    6.8138   -0.7150   -4.9796 P   0  0  0  0  0  0  0  0  0  0  0  0
    6.8177    1.1146   -4.9446 C   0  0  0  0  0  0  0  0  0  0  0  0
    5.9403    1.4636   -4.4414 H   0  0  0  0  0  0  0  0  0  0  0  0
    7.6875    1.4596   -4.4256 H   0  0  0  0  0  0  0  0  0  0  0  0
    6.8276    1.4905   -5.9464 H   0  0  0  0  0  0  0  0  0  0  0  0
    6.7974   -1.6601   -3.4126 C   0  0  0  0  0  0  0  0  0  0  0  0
    5.9219   -2.2742   -3.3756 H   0  0  0  0  0  0  0  0  0  0  0  0
    7.6692   -2.2783   -3.3597 H   0  0  0  0  0  0  0  0  0  0  0  0
    6.7915   -0.9804   -2.5862 H   0  0  0  0  0  0  0  0  0  0  0  0
    6.8262   -1.5996   -6.5815 C   0  0  0  0  0  0  0  0  0  0  0  0
    7.3386   -1.0084   -7.3114 H   0  0  0  0  0  0  0  0  0  0  0  0
    7.3275   -2.5380   -6.4669 H   0  0  0  0  0  0  0  0  0  0  0  0
    5.8199   -1.7697   -6.9029 H   0  0  0  0  0  0  0  0  0  0  0  0
    4.4781   -3.0393   -4.9636 P   0  0  0  0  0  0  0  0  0  0  0  0
    6.2276   -3.0522   -5.5006 C   0  0  0  0  0  0  0  0  0  0  0  0
    6.7187   -2.1738   -5.1370 H   0  0  0  0  0  0  0  0  0  0  0  0
    6.7144   -3.9209   -5.1092 H   0  0  0  0  0  0  0  0  0  0  0  0
    6.2724   -3.0693   -6.5695 H   0  0  0  0  0  0  0  0  0  0  0  0
    4.0686   -3.0100   -3.1803 C   0  0  0  0  0  0  0  0  0  0  0  0
    3.4993   -2.1313   -2.9595 H   0  0  0  0  0  0  0  0  0  0  0  0
    3.4950   -3.8784   -2.9317 H   0  0  0  0  0  0  0  0  0  0  0  0
    4.9720   -3.0031   -2.6069 H   0  0  0  0  0  0  0  0  0  0  0  0
    3.1383   -3.0559   -6.2100 C   0  0  0  0  0  0  0  0  0  0  0  0
    3.4710   -3.5751   -7.0844 H   0  0  0  0  0  0  0  0  0  0  0  0
    2.2809   -3.5518   -5.8054 H   0  0  0  0  0  0  0  0  0  0  0  0
    2.8797   -2.0504   -6.4690 H   0  0  0  0  0  0  0  0  0  0  0  0
    2.1230    0.7398   -2.3721 C   0  0  0  0  0  3  0  0  0  0  0  0
    2.5213    1.4327   -3.0836 H   0  0  0  0  0  0  0  0  0  0  0  0
    2.5763    1.1344   -0.9631 C   0  0  0  0  0  3  0  0  0  0  0  0
    3.6451    1.1702   -0.9271 H   0  0  0  0  0  0  0  0  0  0  0  0
    5.8428   -0.6757   -2.6585 H   0  0  0  0  0  0  0  0  0  0  0  0
    8.1937   -0.7182   -4.9671 H   0  0  0  0  0  0  0  0  0  0  0  0
    4.4748   -4.4192   -4.9417 H   0  0  0  0  0  0  0  0  0  0  0  0
  1  2  1  0  0  0  0
  2  3  1  0  0  0  0
  2 72  1  0  0  0  0
  3  4  1  0  0  0  0
  3  5  1  0  0  0  0
  5  6  1  0  0  0  0
  5  7  1  0  0  0  0
  7  8  1  0  0  0  0
  7 70  1  0  0  0  0
  8  9  1  0  0  0  0
  8 20  1  0  0  0  0
  8 43  1  0  0  0  0
  8 74  1  0  0  0  0
  9 10  1  0  0  0  0
  9 18  1  0  0  0  0
 10 11  1  0  0  0  0
 10 12  1  0  0  0  0
 12 13  1  0  0  0  0
 12 14  1  0  0  0  0
 14 15  1  0  0  0  0
 14 16  1  0  0  0  0
 16 17  1  0  0  0  0
 16 18  1  0  0  0  0
 18 19  1  0  0  0  0
 20 21  1  0  0  0  0
 20 29  1  0  0  0  0
 21 22  1  0  0  0  0
 21 23  1  0  0  0  0
 23 24  1  0  0  0  0
 23 25  1  0  0  0  0
 25 26  1  0  0  0  0
 25 27  1  0  0  0  0
 27 28  1  0  0  0  0
 27 29  1  0  0  0  0
 29 30  1  0  0  0  0
 30 31  2  0  0  0  0
 30 43  1  0  0  0  0
 31 32  1  0  0  0  0
 32 33  1  0  0  0  0
 32 41  1  0  0  0  0
 33 34  1  0  0  0  0
 33 35  1  0  0  0  0
 35 36  1  0  0  0  0
 35 37  1  0  0  0  0
 37 38  1  0  0  0  0
 37 39  1  0  0  0  0
 39 40  1  0  0  0  0
 39 41  1  0  0  0  0
 41 42  1  1  0  0  0
 41 43  1  0  0  0  0
 42 43  1  0  0  0  0
 43 44  1  0  0  0  0
 43 57  1  0  0  0  0
 44 45  1  0  0  0  0
 44 49  1  0  0  0  0
 44 53  1  0  0  0  0
 44 75  1  0  0  0  0
 45 46  1  0  0  0  0
 45 47  1  0  0  0  0
 45 48  1  0  0  0  0
 49 50  1  0  0  0  0
 49 51  1  0  0  0  0
 49 52  1  0  0  0  0
 53 54  1  0  0  0  0
 53 55  1  0  0  0  0
 53 56  1  0  0  0  0
 57 58  1  0  0  0  0
 57 62  1  0  0  0  0
 57 66  1  0  0  0  0
 57 76  1  0  0  0  0
 58 59  1  0  0  0  0
 58 60  1  0  0  0  0
 58 61  1  0  0  0  0
 62 63  1  0  0  0  0
 62 64  1  0  0  0  0
 62 65  1  0  0  0  0
 66 67  1  0  0  0  0
 66 68  1  0  0  0  0
 66 69  1  0  0  0  0
 70 71  1  0  0  0  0
 70 72  1  0  0  0  0
 72 73  1  0  0  0  0
M  END
$$$$
