
 OpenBabel09252513243D

 35 38  0  0  1  0  0  0  0  0999 V2000
    2.7965    0.2239    0.9846 H   0  0  0  0  0  0  0  0  0  0  0  0
    2.7731   -0.0138   -0.0733 C   0  0  0  0  0  3  0  0  0  0  0  0
    2.1974   -1.2808   -0.5087 C   0  0  0  0  0  3  0  0  0  0  0  0
    2.0755   -2.0576    0.2338 H   0  0  0  0  0  0  0  0  0  0  0  0
    1.5955   -1.3765   -1.8518 C   0  0  0  0  0  3  0  0  0  0  0  0
    0.2297   -1.6863   -1.9074 N   0  0  0  0  0  0  0  0  0  0  0  0
   -0.6682   -0.5996   -2.2181 C   0  0  0  0  0  0  0  0  0  0  0  0
   -0.5753    0.2366   -3.1014 O   0  0  0  0  0  0  0  0  0  0  0  0
   -1.6581   -0.5000   -1.0977 C   0  0  2  0  0  0  0  0  0  0  0  0
   -0.7619   -0.6592   -0.4620 H   0  0  0  0  0  0  0  0  0  0  0  0
   -2.0485    0.3352    0.1035 C   0  0  0  0  0  0  0  0  0  0  0  0
   -2.7807    1.1126   -0.1410 H   0  0  0  0  0  0  0  0  0  0  0  0
   -1.2021    0.8284    0.6048 H   0  0  0  0  0  0  0  0  0  0  0  0
   -2.6370   -0.8591    0.9288 C   0  0  2  0  0  0  0  0  0  0  0  0
   -3.2294   -0.2666    2.6395 Br  0  0  0  0  0  0  0  0  0  0  0  0
   -1.6219   -1.9587    1.0097 O   0  0  0  0  0  0  0  0  0  0  0  0
   -1.6559   -2.6820   -0.2757 C   0  0  2  0  0  0  0  0  0  0  0  0
   -2.2316   -4.3387    0.0311 Cl  0  0  0  0  0  0  0  0  0  0  0  0
   -0.2909   -2.8426   -1.0782 C   0  0  0  0  0  0  0  0  0  0  0  0
   -0.4449   -3.6149   -1.8462 H   0  0  0  0  0  0  0  0  0  0  0  0
    0.4828   -3.2257   -0.4089 H   0  0  0  0  0  0  0  0  0  0  0  0
   -2.5821   -1.7665   -1.0486 C   0  0  1  0  0  0  0  0  0  0  0  0
   -2.9154   -2.1315   -2.0231 H   0  0  0  0  0  0  0  0  0  0  0  0
   -3.6749   -1.3179   -0.0811 C   0  0  1  0  0  0  0  0  0  0  0  0
   -4.2186   -0.4613   -0.5042 H   0  0  0  0  0  0  0  0  0  0  0  0
   -5.1815   -2.6391    0.4820 I   0  0  0  0  0  0  0  0  0  0  0  0
    2.1498   -0.4791   -2.8700 C   0  0  0  0  0  3  0  0  0  0  0  0
    1.9263   -0.6693   -3.9146 H   0  0  0  0  0  0  0  0  0  0  0  0
    2.7720    0.7848   -2.4703 C   0  0  0  0  0  3  0  0  0  0  0  0
    3.0066    1.8715   -3.4676 C   0  0  0  0  0  0  0  0  0  0  0  0
    4.3290    2.1681   -3.5720 F   0  0  0  0  0  0  0  0  0  0  0  0
    2.5824    1.5553   -4.7178 F   0  0  0  0  0  0  0  0  0  0  0  0
    2.3794    3.0250   -3.1176 F   0  0  0  0  0  0  0  0  0  0  0  0
    3.0468    1.0271   -1.0516 C   0  0  0  0  0  3  0  0  0  0  0  0
    3.2409    2.0386   -0.7085 H   0  0  0  0  0  0  0  0  0  0  0  0
  1  2  1  0  0  0  0
  2  3  1  0  0  0  0
  2 34  1  0  0  0  0
  3  4  1  0  0  0  0
  3  5  1  0  0  0  0
  5 27  1  0  0  0  0
  5  6  1  0  0  0  0
  6  7  1  0  0  0  0
  6 19  1  0  0  0  0
  7  9  1  0  0  0  0
  7  8  2  0  0  0  0
  9 11  1  0  0  0  0
  9 22  1  0  0  0  0
  9 10  1  6  0  0  0
 11 14  1  0  0  0  0
 11 12  1  0  0  0  0
 11 13  1  0  0  0  0
 14 16  1  0  0  0  0
 14 24  1  0  0  0  0
 14 15  1  1  0  0  0
 16 17  1  0  0  0  0
 17 19  1  0  0  0  0
 17 22  1  0  0  0  0
 17 18  1  1  0  0  0
 19 20  1  0  0  0  0
 19 21  1  0  0  0  0
 22 24  1  0  0  0  0
 22 23  1  6  0  0  0
 24 26  1  0  0  0  0
 24 25  1  6  0  0  0
 27 28  1  0  0  0  0
 27 29  1  0  0  0  0
 29 30  1  0  0  0  0
 29 34  1  0  0  0  0
 30 31  1  0  0  0  0
 30 32  1  0  0  0  0
 30 33  1  0  0  0  0
 34 35  1  0  0  0  0
M  END
$$$$
