
 OpenBabel09252515393D

 24 29  0  0  1  0  0  0  0  0999 V2000
    0.9778    0.0198   -0.0955 H   0  0  0  0  0  0  0  0  0  0  0  0
    2.0478    0.0198   -0.0955 C   0  0  0  0  0  0  0  0  0  0  0  0
    2.4045   -0.9418    0.2095 H   0  0  0  0  0  0  0  0  0  0  0  0
    2.4045    0.2364   -1.0807 H   0  0  0  0  0  0  0  0  0  0  0  0
    2.5545    1.0780    0.8709 C   0  0  2  0  0  0  0  0  0  0  0  0
    1.8650    2.3801    1.0609 C   0  0  2  0  0  0  0  0  0  0  0  0
    0.8926    2.2746    0.6270 H   0  0  0  0  0  0  0  0  0  0  0  0
    2.9942    3.3705    1.4153 C   0  0  2  0  0  0  0  0  0  0  0  0
    2.8149    4.1208    0.6737 H   0  0  0  0  0  0  0  0  0  0  0  0
    4.1259    2.4975    1.9938 C   0  0  2  0  0  0  0  0  0  0  0  0
    5.1717    2.3028    1.8783 H   0  0  0  0  0  0  0  0  0  0  0  0
    3.5854    1.0530    1.9402 C   0  0  1  0  0  0  0  0  0  0  0  0
    3.8119    0.0226    2.1191 H   0  0  0  0  0  0  0  0  0  0  0  0
    3.3994    3.5073    2.8840 Mn  0  0  0  0  0  0  0  0  0  0  0  0
    4.5813    3.3344    1.0964 C   0  0  0  0  0  0  0  0  0  0  0  0
    5.2509    3.2365    0.0836 O   0  0  0  0  0  0  0  0  0  0  0  0
    4.9492    2.5788    4.0496 C   0  0  0  0  0  0  0  0  0  0  0  0
    5.8273    2.0528    4.7100 O   0  0  0  0  0  0  0  0  0  0  0  0
    1.9539    4.1674    2.2801 H   0  0  0  0  0  0  0  0  0  0  0  0
    5.1086    5.0042    1.8411 Si  0  0  0  0  0  0  0  0  0  0  0  0
    5.5706    5.6956    3.8020 Cl  0  0  0  0  0  0  0  0  0  0  0  0
    6.9663    3.9716    1.7016 Cl  0  0  0  0  0  0  0  0  0  0  0  0
    4.4625    5.5695   -0.1082 Cl  0  0  0  0  0  0  0  0  0  0  0  0
    5.2717    6.1659    2.6411 H   0  0  0  0  0  0  0  0  0  0  0  0
  1  2  1  0  0  0  0
  2  3  1  0  0  0  0
  2  4  1  0  0  0  0
  5  2  1  1  0  0  0
  5  6  1  0  0  0  0
  5 12  1  0  0  0  0
  5 14  1  0  0  0  0
  6  7  1  6  0  0  0
  6  8  1  0  0  0  0
  6 14  1  0  0  0  0
  8  9  1  6  0  0  0
  8 10  1  0  0  0  0
  8 14  1  0  0  0  0
 10 11  1  6  0  0  0
 10 12  1  0  0  0  0
 10 14  1  0  0  0  0
 12 13  1  1  0  0  0
 12 14  1  0  0  0  0
 14 15  1  0  0  0  0
 14 17  1  0  0  0  0
 14 19  1  0  0  0  0
 14 20  1  0  0  0  0
 15 16  3  0  0  0  0
 17 18  3  0  0  0  0
 19 20  1  0  0  0  0
 20 21  1  0  0  0  0
 20 22  1  0  0  0  0
 20 23  1  0  0  0  0
 20 24  1  0  0  0  0
M  END
$$$$
