
  --CCDC--092525    3D                              

 44 49  0  0  0  0  0  0  0  0999 V2000
    0.0122   -0.0020   -0.4158 C      0
    1.4913    0.0239   -0.7209 C      0
    1.9217   -1.3234   -0.3763 C      0
    2.8060   -0.0329    0.8738 Ir     0
    3.0701    1.9565    0.6841 C      0
    2.1601    1.4820   -0.3251 C      0
    4.1049    0.0047    2.5490 C      0
    5.4566    0.3387    2.4061 C      0
    6.0720   -0.0071    1.0719 C      0
    4.8994   -1.2701    0.5439 P      0
    5.0630   -2.8276    1.4572 C      0
    4.0680   -3.6496    1.1445 F      0
    5.0793   -2.6651    2.7739 F      0
    6.2032   -3.4195    1.1205 F      0
    5.1770   -1.6054   -1.2124 C      0
    6.3947   -2.1019   -1.3984 F      0
    5.0669   -0.4876   -1.9209 F      0
    4.2949   -2.4860   -1.6705 F      0
    6.2226    0.8443    3.4524 C      0
    5.7049    0.8745    4.7332 C      0
    4.4901    0.2545    4.9539 C      0
    3.7738   -0.2663    3.8805 C      0
    2.6957   -1.2917    4.0954 C      0
    1.5261   -0.7606    2.8491 P      0
    0.4139   -2.1585    2.5504 C      0
   -0.5890   -1.8411    1.7426 F      0
   -0.1097   -2.5696    3.6996 F      0
    1.0831   -3.1731    2.0151 F      0
    0.6224    0.6340    3.5689 C      0
    1.4600    1.6247    3.8526 F      0
    0.0281    0.2582    4.6955 F      0
   -0.3100    1.0994    2.7475 F      0
   -0.5110    0.7623   -0.9867 H      0
   -0.1669    0.1855    0.6373 H      0
   -0.4185   -0.9684   -0.6691 H      0
    1.5021   -2.3155   -0.3251 H      0
    3.5815    2.8271    1.0813 H      0
    6.0778    0.8568    0.3960 H      0
    7.0973   -0.3887    1.1523 H      0
    7.2317    1.1967    3.2661 H      0
    6.2610    1.3217    5.5506 H      0
    4.1142    0.1407    5.9653 H      0
    3.0647   -2.3050    3.8982 H      0
    2.2710   -1.2771    5.1068 H      0
  1  2  1
  2  3  2
  3  4  1
  2  4  1
  4  5  1
  5  6  2
  2  6  1
  4  6  1
  4  7  1
  7  8  4
  8  9  1
  9 10  1
  4 10  1
 10 11  1
 11 12  1
 11 13  1
 11 14  1
 10 15  1
 15 16  1
 15 17  1
 15 18  1
  8 19  4
 19 20  4
 20 21  4
 21 22  4
  7 22  4
 22 23  1
 23 24  1
  4 24  1
 24 25  1
 25 26  1
 25 27  1
 25 28  1
 24 29  1
 29 30  1
 29 31  1
 29 32  1
  1 33  1
  1 34  1
  1 35  1
  3 36  1
  5 37  1
  9 38  1
  9 39  1
 19 40  1
 20 41  1
 21 42  1
 23 43  1
 23 44  1
M  END
$$$$
