
  --CCDC--092525    3D                              

 80 95  0  0  0  0  0  0  0  0999 V2000
   -0.1956   -1.9519   -3.0102 C      0
    1.1990   -2.2095   -3.1606 O      0
    1.9541   -2.5854   -2.0775 C      0
    3.3025   -2.8249   -2.2696 C      0
    4.0984   -3.2056   -1.2052 C      0
    3.5647   -3.3533    0.0671 C      0
    2.2072   -3.1101    0.2514 C      0
    1.4067   -2.7292   -0.8116 C      0
    4.4543   -3.7489    1.1104 N      0
    6.3639   -4.0127    0.5764 Cu     0
    7.1043   -6.0147   -0.4550 P      0
    5.8236   -6.8084   -1.4556 C      0
    4.4895   -6.7456   -1.0689 C      0
    3.5193   -7.4176   -1.7936 C      0
    3.8714   -8.1725   -2.8914 C      0
    5.1949   -8.2685   -3.2634 C      0
    6.1717   -7.5998   -2.5444 C      0
    7.6546   -7.1925    0.8025 C      0
    7.6421   -8.5579    0.5403 C      0
    8.1349   -9.4538    1.4744 C      0
    8.6625   -8.9972    2.6628 C      0
    8.7102   -7.6439    2.9185 C      0
    8.2196   -6.7410    1.9899 C      0
    8.5181   -5.5635   -1.4899 C      0
    9.7750   -6.2749   -1.8900 C      0
   10.6730   -5.5496   -2.6960 C      0
    9.9949   -4.4174   -3.1048 C      0
    8.7142   -4.4999   -2.5292 C      0
   10.1722   -4.3960   -1.0053 Fe     0
   11.5138   -4.4941    0.6164 C      0
   11.8989   -3.4713   -0.2287 C      0
   10.8389   -2.5446   -0.2316 C      0
    9.5608   -2.9955    0.4081 C      0
   10.2357   -4.1482    1.0908 C      0
    7.9326   -2.2359    0.6190 P      0
    7.8780   -1.2834    2.1557 C      0
    6.9862   -0.2261    2.2975 C      0
    6.8925    0.4532    3.5008 C      0
    7.6670    0.0721    4.5750 C      0
    8.5300   -0.9957    4.4553 C      0
    8.6301   -1.6805    3.2557 C      0
    7.6343   -1.1084   -0.7637 C      0
    7.1250   -1.5885   -1.9651 C      0
    6.9678   -0.7388   -3.0474 C      0
    7.3371    0.5853   -2.9497 C      0
    7.8753    1.0633   -1.7746 C      0
    8.0357    0.2206   -0.6873 C      0
    4.1506   -3.9789    2.4838 C      0
    3.0630   -3.8716    3.0140 O      0
    5.3273   -4.3969    3.3863 C      0
    5.8620   -5.5451    3.0045 F      0
    4.9557   -4.5495    4.6469 F      0
    6.3007   -3.5011    3.3814 F      0
   -0.6400   -1.6670   -3.9616 H      0
   -0.3644   -1.1436   -2.3018 H      0
   -0.7140   -2.8362   -2.6453 H      0
    3.7366   -2.7141   -3.2578 H      0
    5.1549   -3.3922   -1.3668 H      0
    1.7507   -3.2129    1.2275 H      0
    0.3522   -2.5473   -0.6344 H      0
    4.2068   -6.1651   -0.1969 H      0
    2.4784   -7.3512   -1.4946 H      0
    3.1082   -8.6942   -3.4595 H      0
    5.4729   -8.8718   -4.1213 H      0
    7.2133   -7.6918   -2.8340 H      0
    7.2418   -8.9235   -0.3996 H      0
    8.1076  -10.5188    1.2689 H      0
    9.0438   -9.7021    3.3943 H      0
    9.1356   -7.2844    3.8496 H      0
    8.2740   -5.6762    2.1914 H      0
    6.3626    0.0701    1.4604 H      0
    6.2052    1.2870    3.5987 H      0
    7.5943    0.6091    5.5150 H      0
    9.1317   -1.3022    5.3046 H      0
    9.3007   -2.5294    3.1731 H      0
    6.8476   -2.6335   -2.0548 H      0
    6.5546   -1.1175   -3.9765 H      0
    7.2085    1.2493   -3.7981 H      0
    8.1765    2.1031   -1.7016 H      0
    8.4739    0.6002    0.2298 H      0
  1  2  1
  2  3  1
  3  4  4
  4  5  4
  5  6  4
  6  7  4
  7  8  4
  3  8  4
  6  9  1
  9 10  1
 10 11  1
 11 12  1
 12 13  4
 13 14  4
 14 15  4
 15 16  4
 16 17  4
 12 17  4
 11 18  1
 18 19  4
 19 20  4
 20 21  4
 21 22  4
 22 23  4
 18 23  4
 11 24  1
 24 25  4
 25 26  4
 26 27  4
 27 28  4
 24 28  4
 28 29  1
 24 29  1
 25 29  1
 26 29  1
 27 29  1
 29 30  1
 30 31  4
 29 31  1
 31 32  4
 29 32  1
 32 33  4
 29 33  1
 33 34  4
 29 34  1
 30 34  4
 33 35  1
 10 35  1
 35 36  1
 36 37  4
 37 38  4
 38 39  4
 39 40  4
 40 41  4
 36 41  4
 35 42  1
 42 43  4
 43 44  4
 44 45  4
 45 46  4
 46 47  4
 42 47  4
  9 48  1
 48 49  2
 48 50  1
 50 51  1
 50 52  1
 50 53  1
  1 54  1
  1 55  1
  1 56  1
  4 57  1
  5 58  1
  7 59  1
  8 60  1
 13 61  1
 14 62  1
 15 63  1
 16 64  1
 17 65  1
 19 66  1
 20 67  1
 21 68  1
 22 69  1
 23 70  1
 37 71  1
 38 72  1
 39 73  1
 40 74  1
 41 75  1
 43 76  1
 44 77  1
 45 78  1
 46 79  1
 47 80  1
M  END
$$$$
