
  --CCDC--092525    3D                              

 53 64  0  0  0  0  0  0  0  0999 V2000
    0.1665    1.3279   -1.8441 C      0
    1.5830    0.9759   -1.8255 C      0
    2.7247    0.6925   -1.7850 N      0
    4.7865   -0.0586   -1.5345 Ru     3
    2.3951   -1.3026   -2.0538 Br     0
    3.7249    0.4649   -3.3950 Ru     0
    2.7372   -0.5580   -5.0133 C      0
    2.2140   -1.0997   -5.8703 O      0
    1.8915    1.1346   -4.3089 N      0
    0.9904    1.5826   -4.8545 C      0
   -0.0999    2.1581   -5.6339 C      0
    5.0765    1.7257   -4.1546 C      0
    5.6530    0.1752   -3.8382 C      0
    5.2055   -0.3113   -2.2433 C      0
    5.4155   -1.6942   -1.3753 C      0
    4.5221   -2.6786   -0.5951 C      0
    6.4677   -2.6920   -1.9099 C      0
    5.9413   -0.9021   -0.2238 C      0
    6.8446   -0.4216   -1.4988 C      0
    6.4590    1.0412   -2.0981 C      0
    5.6805    1.6736   -0.8090 C      0
    5.1986    0.5430    0.2909 C      0
    3.8478    1.0374   -0.0661 C      0
    2.8657    0.1564    0.7293 C      0
    3.5468    2.4168    0.5336 C      0
    4.3959    1.0620   -1.5748 C      0
    4.3052    2.2797   -2.7702 C      0
    4.3080   -1.5785   -3.0347 C      0
    4.0113   -2.4426   -3.7451 O      0
    0.0007    2.2577   -2.3865 H      0
   -0.2210    1.4497   -0.8347 H      0
   -0.4081    0.5490   -2.3394 H      0
   -0.6633    1.3809   -6.1418 H      0
    0.2904    2.8325   -6.3943 H      0
   -0.7901    2.7210   -5.0078 H      0
    4.6431    1.9560   -5.1398 H      0
    5.6577   -0.5447   -4.6736 H      0
    5.1575   -3.3515   -0.0199 H      0
    3.9213   -3.3026   -1.2511 H      0
    3.8870   -2.2123    0.1396 H      0
    6.8368   -2.4409   -2.9031 H      0
    5.9929   -3.6674   -2.0031 H      0
    7.3119   -2.8232   -1.2327 H      0
    7.6064    0.0214   -0.8391 H      0
    7.3957    1.4136   -1.6568 H      0
    6.6402    1.8035   -0.2865 H      0
    2.6944   -0.8253    0.3291 H      0
    1.8920    0.6375    0.7751 H      0
    3.2286    0.0300    1.7482 H      0
    2.4869    2.4917    0.7708 H      0
    3.7919    3.2557   -0.1132 H      0
    4.0957    2.5357    1.4654 H      0
    3.3782    2.8665   -2.8627 H      0
  1  2  1
  2  3  3
  3  4  1
  4  5  1
  5  6  1
  6  7  1
  7  8  3
  6  9  1
  9 10  3
 10 11  1
  6 12  1
 12 13  1
  6 13  1
 13 14  1
  6 14  1
 14 15  1
 15 16  1
 15 17  1
 15 18  1
  4 18  1
 18 19  1
  4 19  1
 19 20  1
  4 20  1
 20 21  1
  4 21  1
 21 22  1
  4 22  1
 18 22  1
 22 23  1
 23 24  1
 23 25  1
 23 26  1
  6 26  1
 14 26  1
 26 27  1
  6 27  1
 12 27  1
  4 28  1
 28 29  3
  1 30  1
  1 31  1
  1 32  1
 11 33  1
 11 34  1
 11 35  1
 12 36  1
 13 37  1
 16 38  1
 16 39  1
 16 40  1
 17 41  1
 17 42  1
 17 43  1
 19 44  1
 20 45  1
 21 46  1
 24 47  1
 24 48  1
 24 49  1
 25 50  1
 25 51  1
 25 52  1
 27 53  1
M  CHG  1   4   1
M  END
$$$$
