
 OpenBabel09252516383D

 36 38  0  0  1  0  0  0  0  0999 V2000
    0.5031    1.6295   -1.3522 H   0  0  0  0  0  0  0  0  0  0  0  0
    1.4877    1.3021   -1.0911 C   0  0  0  0  0  0  0  0  0  0  0  0
    1.6703    0.8696   -0.1295 H   0  0  0  0  0  0  0  0  0  0  0  0
    2.5074    1.4357   -1.9816 C   0  0  0  0  0  0  0  0  0  0  0  0
    2.3248    1.8682   -2.9431 H   0  0  0  0  0  0  0  0  0  0  0  0
    3.9062    0.9706   -1.6107 C   0  0  1  0  0  0  0  0  0  0  0  0
    4.2437    1.5073   -0.7487 H   0  0  0  0  0  0  0  0  0  0  0  0
    3.8802   -0.5177   -1.3027 C   0  0  0  0  0  0  0  0  0  0  0  0
    3.5427   -1.0544   -2.1646 H   0  0  0  0  0  0  0  0  0  0  0  0
    4.8649   -0.8451   -1.0416 H   0  0  0  0  0  0  0  0  0  0  0  0
    3.2148   -0.7012   -0.4851 H   0  0  0  0  0  0  0  0  0  0  0  0
    4.8514    1.2312   -2.7721 C   0  0  1  0  0  0  0  0  0  0  0  0
    4.5139    0.6945   -3.6340 H   0  0  0  0  0  0  0  0  0  0  0  0
    4.8765    2.6705   -3.0699 N   0  0  0  0  0  0  0  0  0  0  0  0
    3.8065    3.2689   -3.4047 N   0  0  0  0  0  4  0  0  0  0  0  0
    2.7364    3.8673   -3.7395 N   0  0  0  0  0  0  0  0  0  0  0  0
    6.2544    0.7740   -2.4075 C   0  0  2  0  0  0  0  0  0  0  0  0
    5.1844    0.7740   -2.4075 H   0  0  0  0  0  0  0  0  0  0  0  0
    7.0249    1.8451   -2.3173 C   0  0  1  0  0  0  0  0  0  0  0  0
    6.4376    1.1020   -1.8194 H   0  0  0  0  0  0  0  0  0  0  0  0
    8.4235    1.3449   -2.3590 C   0  0  1  0  0  0  0  0  0  0  0  0
    7.8199    1.8509   -3.0833 H   0  0  0  0  0  0  0  0  0  0  0  0
    8.3345    0.0296   -2.4642 C   0  0  2  0  0  0  0  0  0  0  0  0
    9.1602   -0.6491   -2.5134 H   0  0  0  0  0  0  0  0  0  0  0  0
    7.0444    0.4827   -3.1281 C   0  0  0  0  0  0  0  0  0  0  0  0
    6.5342    1.1780   -2.4947 H   0  0  0  0  0  0  0  0  0  0  0  0
    7.2894    0.9579   -4.0549 H   0  0  0  0  0  0  0  0  0  0  0  0
    6.4118   -0.3597   -3.3155 H   0  0  0  0  0  0  0  0  0  0  0  0
    7.0367   -0.3136   -2.4992 Fe  0  0  0  0  0  0  0  0  0  0  0  0
    8.8472    0.5551   -1.9571 C   0  0  0  0  0  0  0  0  0  0  0  0
    9.9075    1.0638   -1.6397 O   0  0  0  0  0  0  0  0  0  0  0  0
    8.6092    0.2197   -3.7519 C   0  0  0  0  0  0  0  0  0  0  0  0
    9.5301    0.5319   -4.4855 O   0  0  0  0  0  0  0  0  0  0  0  0
    8.8424   -1.3230   -2.7159 C   0  0  0  0  0  0  0  0  0  0  0  0
    9.8998   -1.9142   -2.8429 O   0  0  0  0  0  0  0  0  0  0  0  0
    1.9201    3.8324   -3.1288 H   0  0  0  0  0  0  0  0  0  0  0  0
  1  2  1  0  0  0  0
  2  3  1  0  0  0  0
  2  4  2  0  0  0  0
  4  5  1  0  0  0  0
  4  6  1  0  0  0  0
  6  7  1  1  0  0  0
  6  8  1  0  0  0  0
  6 12  1  0  0  0  0
  8  9  1  0  0  0  0
  8 10  1  0  0  0  0
  8 11  1  0  0  0  0
 12 13  1  6  0  0  0
 12 14  1  0  0  0  0
 14 15  2  0  0  0  0
 15 16  2  0  0  0  0
 16 36  1  0  0  0  0
 17 19  2  0  0  0  0
 17 29  1  0  0  0  0
 17 18  1  1  0  0  0
 17 12  1  0  0  0  0
 19 20  1  6  0  0  0
 19 21  1  0  0  0  0
 19 29  1  0  0  0  0
 21 22  1  6  0  0  0
 21 23  2  0  0  0  0
 21 29  1  0  0  0  0
 23 29  1  0  0  0  0
 23 25  1  0  0  0  0
 23 24  1  6  0  0  0
 25 26  1  0  0  0  0
 25 27  1  0  0  0  0
 25 28  1  0  0  0  0
 29 30  1  0  0  0  0
 29 32  1  0  0  0  0
 29 34  1  0  0  0  0
 30 31  3  0  0  0  0
 32 33  3  0  0  0  0
 34 35  3  0  0  0  0
M  END
$$$$
