
  --CCDC--092525    3D                              

 75 87  0  0  0  0  0  0  0  0999 V2000
    0.9136    0.3455    1.5966 Cl     0
    1.7161    2.4887    0.0914 Zr     0
    3.0146    2.5236    2.4981 Cl     0
   -0.5590    2.6609    0.7342 C      0
    0.3749    3.5149    1.7539 C      0
    0.9705    4.6638    0.8020 C      0
    0.0350    5.6551    1.0886 C      0
   -0.1326    6.7457    0.2324 C      0
    0.2716    6.6741   -1.0852 C      0
    0.5970    5.4175   -1.5646 C      0
    0.5996    4.4410   -0.5919 C      0
   -0.3780    3.1934   -0.7694 C      0
   -0.7264    2.2730   -2.3505 Si     0
   -1.3777    0.5515   -1.9701 C      0
   -1.9912    3.1852   -3.3997 C      0
    1.4153    2.2496   -3.2983 Si     0
    1.3925    1.0574   -4.7517 C      0
    2.1230    3.8347   -4.0137 C      0
    2.4801    1.5236   -1.9153 C      0
    3.7809    1.6218   -0.7245 C      0
    3.9463    3.0472   -0.4766 C      0
    3.5010    1.5860   -1.2084 C      0
    4.0041    1.2196   -2.4875 C      0
    3.7998   -0.0545   -3.0918 C      0
    2.8452   -0.9636   -2.6411 C      0
    2.0572   -0.6702   -1.5306 C      0
    2.4233    0.4977   -0.9060 C      0
    4.6565    4.6020   -1.2581 Si     0
    3.5558    6.1152   -1.3125 C      0
    5.4133    4.3197   -2.9492 C      0
    6.0928    5.1122   -0.1677 C      0
    0.4744    3.3721    3.6301 Si     0
    0.6314    1.6583    4.3809 C      0
   -1.2006    3.9528    4.2380 C      0
    1.6589    4.5866    4.4367 C      0
   -0.8236    1.6131    0.9447 H      0
   -0.5055    5.6344    2.0283 H      0
   -0.6122    7.6476    0.5981 H      0
    0.2494    7.5424   -1.7352 H      0
    0.7010    5.2262   -2.6211 H      0
   -1.5238   -0.0168   -2.8863 H      0
   -2.3315    0.6063   -1.4495 H      0
   -0.6787    0.0052   -1.3402 H      0
   -2.1484    2.6728   -4.3465 H      0
   -1.6562    4.1979   -3.6139 H      0
   -2.9475    3.2464   -2.8845 H      0
    0.7397    1.4241   -5.5411 H      0
    1.0328    0.0784   -4.4419 H      0
    2.3909    0.9360   -5.1666 H      0
    1.3849    4.3434   -4.6303 H      0
    2.9864    3.6173   -4.6380 H      0
    2.4376    4.5111   -3.2248 H      0
    3.9726    0.8519    0.0408 H      0
    4.6872    1.8902   -3.0106 H      0
    4.3813   -0.3092   -3.9717 H      0
    2.7029   -1.9005   -3.1694 H      0
    1.2577   -1.3128   -1.1771 H      0
    2.9945    6.1551   -2.2412 H      0
    4.1569    7.0206   -1.2595 H      0
    2.8582    6.1235   -0.4776 H      0
    4.6853    3.9101   -3.6426 H      0
    6.2460    3.6224   -2.8851 H      0
    5.7867    5.2537   -3.3639 H      0
    6.8333    4.3172   -0.1082 H      0
    5.7514    5.3336    0.8413 H      0
    6.5806    6.0007   -0.5631 H      0
   -0.0941    0.9799    3.9368 H      0
    0.4422    1.6949    5.4516 H      0
    1.6206    1.2332    4.2341 H      0
   -1.9928    3.3118    3.8566 H      0
   -1.3993    4.9702    3.9076 H      0
   -1.2439    3.9348    5.3250 H      0
    1.2638    4.9194    5.3943 H      0
    1.7898    5.4646    3.8077 H      0
    2.6396    4.1561    4.6176 H      0
  1  2  1
  2  3  1
  2  4  1
  4  5  1
  2  5  1
  5  6  1
  2  6  1
  6  7  4
  7  8  4
  8  9  4
  9 10  4
 10 11  4
  2 11  1
  6 11  4
 11 12  1
  2 12  1
  4 12  1
 12 13  1
 13 14  1
 13 15  1
 13 16  1
 16 17  1
 16 18  1
 16 19  1
  2 19  1
 19 20  1
  2 20  1
 20 21  1
  2 21  1
 21 22  1
  2 22  1
 22 23  4
 23 24  4
 24 25  4
 25 26  4
 26 27  4
  2 27  1
 19 27  1
 22 27  4
 21 28  1
 28 29  1
 28 30  1
 28 31  1
  5 32  1
 32 33  1
 32 34  1
 32 35  1
  4 36  1
  7 37  1
  8 38  1
  9 39  1
 10 40  1
 14 41  1
 14 42  1
 14 43  1
 15 44  1
 15 45  1
 15 46  1
 17 47  1
 17 48  1
 17 49  1
 18 50  1
 18 51  1
 18 52  1
 20 53  1
 23 54  1
 24 55  1
 25 56  1
 26 57  1
 29 58  1
 29 59  1
 29 60  1
 30 61  1
 30 62  1
 30 63  1
 31 64  1
 31 65  1
 31 66  1
 33 67  1
 33 68  1
 33 69  1
 34 70  1
 34 71  1
 34 72  1
 35 73  1
 35 74  1
 35 75  1
M  END
$$$$
