
     RDKit          3D

 53 57  0  0  0  0  0  0  0  0999 V2000
   -1.1981    4.4126    1.5290 I   0  0  0  0  0  0  0  0  0  0  0  0
   -0.0358    2.4276    2.0003 Cu  0  0  0  0  0  3  0  0  0  0  0  0
    0.6198    2.0085   -0.0756 S   0  0  0  0  0  3  0  0  0  0  0  0
    1.3405    0.4441    0.1929 P   0  0  0  0  0  0  0  0  0  0  0  0
    0.0814   -0.6860    0.7780 C   0  0  0  0  0  0  0  0  0  0  0  0
   -1.5528    0.0357    0.9399 P   0  0  0  0  0  0  0  0  0  0  0  0
   -1.6518    1.0279    2.3486 S   0  0  0  0  0  3  0  0  0  0  0  0
   -2.7060   -1.3035    1.1103 C   0  0  0  0  0  0  0  0  0  0  0  0
   -2.8861   -2.1702    0.0376 C   0  0  0  0  0  0  0  0  0  0  0  0
   -3.7771   -3.2029    0.1728 C   0  0  0  0  0  0  0  0  0  0  0  0
   -4.4781   -3.3799    1.3416 C   0  0  0  0  0  0  0  0  0  0  0  0
   -4.3231   -2.5426    2.4174 C   0  0  0  0  0  0  0  0  0  0  0  0
   -3.4178   -1.4989    2.2710 C   0  0  0  0  0  0  0  0  0  0  0  0
   -2.0551    1.0005   -0.4617 C   0  0  0  0  0  0  0  0  0  0  0  0
   -3.0282    1.9782   -0.2394 C   0  0  0  0  0  0  0  0  0  0  0  0
   -3.5284    2.8083   -1.2047 C   0  0  0  0  0  0  0  0  0  0  0  0
   -3.0461    2.6805   -2.4901 C   0  0  0  0  0  0  0  0  0  0  0  0
   -2.0848    1.7215   -2.7322 C   0  0  0  0  0  0  0  0  0  0  0  0
   -1.5827    0.8858   -1.7553 C   0  0  0  0  0  0  0  0  0  0  0  0
    2.7000    0.5820    1.3637 C   0  0  0  0  0  0  0  0  0  0  0  0
    3.6106    1.6075    1.1860 C   0  0  0  0  0  0  0  0  0  0  0  0
    4.6828    1.7782    2.0455 C   0  0  0  0  0  0  0  0  0  0  0  0
    4.8413    0.9013    3.1023 C   0  0  0  0  0  0  0  0  0  0  0  0
    3.9440   -0.1315    3.3003 C   0  0  0  0  0  0  0  0  0  0  0  0
    2.8954   -0.2582    2.4182 C   0  0  0  0  0  0  0  0  0  0  0  0
    1.9858   -0.1408   -1.3389 C   0  0  0  0  0  0  0  0  0  0  0  0
    2.3930   -1.4794   -1.3123 C   0  0  0  0  0  0  0  0  0  0  0  0
    2.9245   -2.1020   -2.4295 C   0  0  0  0  0  0  0  0  0  0  0  0
    3.0480   -1.3705   -3.5866 C   0  0  0  0  0  0  0  0  0  0  0  0
    2.6574   -0.0473   -3.6525 C   0  0  0  0  0  0  0  0  0  0  0  0
    2.1291    0.5520   -2.5217 C   0  0  0  0  0  0  0  0  0  0  0  0
    0.3221   -1.1458    1.7554 H   0  0  0  0  0  0  0  0  0  0  0  0
   -0.0407   -1.5717    0.0870 H   0  0  0  0  0  0  0  0  0  0  0  0
   -2.3358   -2.0350   -0.8861 H   0  0  0  0  0  0  0  0  0  0  0  0
   -3.9037   -3.8678   -0.6745 H   0  0  0  0  0  0  0  0  0  0  0  0
   -5.1726   -4.2148    1.3968 H   0  0  0  0  0  0  0  0  0  0  0  0
   -4.8494   -2.6472    3.3424 H   0  0  0  0  0  0  0  0  0  0  0  0
   -3.2326   -0.7869    3.0742 H   0  0  0  0  0  0  0  0  0  0  0  0
   -3.4405    2.1198    0.7530 H   0  0  0  0  0  0  0  0  0  0  0  0
   -4.2751    3.5451   -0.9896 H   0  0  0  0  0  0  0  0  0  0  0  0
   -3.4458    3.3398   -3.2483 H   0  0  0  0  0  0  0  0  0  0  0  0
   -1.7084    1.6257   -3.7488 H   0  0  0  0  0  0  0  0  0  0  0  0
   -0.8433    0.1382   -1.9092 H   0  0  0  0  0  0  0  0  0  0  0  0
    3.5588    2.3328    0.3885 H   0  0  0  0  0  0  0  0  0  0  0  0
    5.4155    2.5759    1.9310 H   0  0  0  0  0  0  0  0  0  0  0  0
    5.6519    0.9637    3.8207 H   0  0  0  0  0  0  0  0  0  0  0  0
    4.0166   -0.8557    4.1168 H   0  0  0  0  0  0  0  0  0  0  0  0
    2.1918   -1.0619    2.5671 H   0  0  0  0  0  0  0  0  0  0  0  0
    2.3367   -2.1425   -0.4469 H   0  0  0  0  0  0  0  0  0  0  0  0
    3.2465   -3.1354   -2.4343 H   0  0  0  0  0  0  0  0  0  0  0  0
    3.4651   -1.8386   -4.4846 H   0  0  0  0  0  0  0  0  0  0  0  0
    2.7458    0.5497   -4.5559 H   0  0  0  0  0  0  0  0  0  0  0  0
    1.7955    1.5741   -2.4672 H   0  0  0  0  0  0  0  0  0  0  0  0
  1  2  1  0
  2  3  1  0
  3  4  2  0
  4  5  1  0
  5  6  1  0
  6  7  2  0
  6  8  1  0
  8  9  2  0
  9 10  1  0
 10 11  2  0
 11 12  1  0
 12 13  2  0
  6 14  1  0
 14 15  2  0
 15 16  1  0
 16 17  2  0
 17 18  1  0
 18 19  2  0
  4 20  1  0
 20 21  2  0
 21 22  1  0
 22 23  2  0
 23 24  1  0
 24 25  2  0
  4 26  1  0
 26 27  2  0
 27 28  1  0
 28 29  2  0
 29 30  1  0
 30 31  2  0
  7  2  1  0
 13  8  1  0
 19 14  1  0
 25 20  1  0
 31 26  1  0
  5 32  1  0
  5 33  1  0
  9 34  1  0
 10 35  1  0
 11 36  1  0
 12 37  1  0
 13 38  1  0
 15 39  1  0
 16 40  1  0
 17 41  1  0
 18 42  1  0
 19 43  1  0
 21 44  1  0
 22 45  1  0
 23 46  1  0
 24 47  1  0
 25 48  1  0
 27 49  1  0
 28 50  1  0
 29 51  1  0
 30 52  1  0
 31 53  1  0
M  RAD  2   3   2   7   2
M  END
