
  --CCDC--092525    3D                              

 57 64  0  0  0  0  0  0  0  0999 V2000
    1.6961   -2.0670   -5.0625 H      0
    0.9197   -2.3887   -4.3754 C      0
   -0.3042   -2.8275   -4.7086 C      0
   -0.6977   -2.9267   -5.7149 H      0
   -0.9906   -3.1066   -3.5197 N      0
   -0.1845   -2.8925   -2.3710 C      0
    0.9929   -2.3901   -2.9765 N      0
    2.0878   -1.9650   -2.0999 C      0
    3.0267   -1.9647   -2.6677 H      0
    2.1929   -2.6799   -1.2742 H      0
    1.8417   -0.6282   -1.5507 N      0
    2.4289    0.5835   -1.9272 C      0
    3.1838    0.7247   -2.6939 H      0
    1.8495    1.5397   -1.1893 C      0
    2.0423    2.6055   -1.2486 H      0
    0.9211    0.9133   -0.3492 N      0
    0.9206   -0.4921   -0.4678 C      0
   -1.0096   -1.3737   -1.0212 Fe     0
   -1.0593    0.0042   -2.7331 N      0
   -1.0819    0.7124   -3.6270 C      0
   -1.0566    1.6104   -4.7719 C      0
   -0.9800    1.0523   -5.7030 H      0
   -0.2047    2.2833   -4.7099 H      0
   -1.9622    2.2124   -4.8081 H      0
   -0.6834   -2.7930    0.6285 N      0
   -0.5143   -3.5286    1.4834 C      0
   -0.2540   -4.4688    2.5649 C      0
    0.3613   -5.2994    2.2224 H      0
   -1.1851   -4.8749    2.9548 H      0
    0.2694   -3.9743    3.3806 H      0
   -2.0051    0.0602    0.3003 C      0
   -1.0547    0.6842    1.1525 N      0
   -1.2677    0.3635    2.4992 C      0
   -0.6800    0.7124    3.3429 H      0
   -2.3372   -0.4478    2.5563 C      0
   -2.7683   -0.8771    3.4548 H      0
   -2.8038   -0.6288    1.2485 N      0
   -3.9544   -1.4260    0.7999 C      0
   -4.3803   -1.9140    1.6851 H      0
   -4.7290   -0.7553    0.4072 H      0
   -3.6723   -2.4680   -0.1984 N      0
   -3.9623   -3.8361   -0.1122 C      0
   -4.4517   -4.3358    0.7174 H      0
   -3.5337   -4.4150   -1.2449 C      0
   -3.6134   -5.4659   -1.5033 H      0
   -2.9697   -3.4106   -2.0398 N      0
   -3.0248   -2.1354   -1.4185 C      0
   -2.3846   -3.5441   -3.3781 C      0
   -3.0005   -2.9679   -4.0794 H      0
   -2.4486   -4.5962   -3.6813 H      0
   -0.0243    1.5587    0.5739 C      0
    0.5439    2.0229    1.3902 H      0
   -0.5320    2.3696    0.0360 H      0
    0.0122   -3.8370   -1.8412 H      0
    1.2240   -0.8847    0.5241 H      0
   -2.5873    0.7780   -0.2936 H      0
   -3.6006   -1.4072   -2.0071 H      0
  1  2  1
  2  3  2
  3  4  1
  3  5  1
  5  6  1
  6  7  1
  2  7  1
  7  8  1
  8  9  1
  8 10  1
  8 11  1
 11 12  1
 12 13  1
 12 14  2
 14 15  1
 14 16  1
 16 17  1
 11 17  1
 17 18  1
  6 18  1
 18 19  1
 19 20  3
 20 21  1
 21 22  1
 21 23  1
 21 24  1
 18 25  1
 25 26  3
 26 27  1
 27 28  1
 27 29  1
 27 30  1
 18 31  1
 31 32  1
 32 33  1
 33 34  1
 33 35  2
 35 36  1
 35 37  1
 31 37  1
 37 38  1
 38 39  1
 38 40  1
 38 41  1
 41 42  1
 42 43  1
 42 44  2
 44 45  1
 44 46  1
 46 47  1
 41 47  1
 18 47  1
 46 48  1
  5 48  1
 48 49  1
 48 50  1
 32 51  1
 16 51  1
 51 52  1
 51 53  1
  6 54  1
 17 55  1
 31 56  1
 47 57  1
M  END
$$$$
