
  --CCDC--092525    3D                              

 39 44  0  0  0  0  0  0  0  0999 V2000
   -0.0582    0.3606   -0.8447 C      0
    1.7626   -0.0002   -0.6232 Si     0
    1.8608   -1.4295    0.5778 C      0
    2.3583   -0.6635   -2.2665 C      0
    2.6999    1.4438   -0.0706 C      0
    3.7427    1.9417   -0.8516 C      0
    5.2904    2.6812   -2.0105 Cr     0
    6.2822    4.2302   -2.9598 C      0
    6.8283    5.0831   -3.4825 O      0
    7.0168    2.4333   -3.1253 C      0
    7.9670    2.2964   -3.7397 O      0
    4.1863    2.3498   -3.3084 C      0
    4.0905    3.8425   -2.4690 C      0
    5.0418    4.0994   -1.0479 C      0
    6.0820    2.8630   -0.4756 C      0
    6.1602    1.3624   -1.3005 C      0
    5.2093    1.1044   -2.7217 C      0
    2.3153    2.2075    1.5224 Si     0
    0.8842    1.3830    2.3997 C      0
    1.8454    4.0107    1.3654 C      0
    3.7511    2.1543    2.7180 C      0
   -0.2038    1.3002   -1.3740 H      0
   -0.5568    0.4335    0.1194 H      0
   -0.5413   -0.4288   -1.4161 H      0
    2.8644   -1.5205    0.9879 H      0
    1.6103   -2.3661    0.0838 H      0
    1.1683   -1.2868    1.4047 H      0
    1.7727   -1.5297   -2.5678 H      0
    3.4020   -0.9646   -2.2055 H      0
    2.2685    0.0930   -3.0433 H      0
   -0.0065    1.3895    1.7755 H      0
    0.6537    1.9105    3.3206 H      0
    1.1093    0.3533    2.6640 H      0
    0.9665    4.1271    0.7350 H      0
    2.6579    4.5839    0.9239 H      0
    1.6213    4.4370    2.3413 H      0
    4.0461    1.1267    2.9206 H      0
    3.4838    2.6227    3.6629 H      0
    4.6120    2.6800    2.3106 H      0
  1  2  1
  2  3  1
  2  4  1
  2  5  1
  5  6  4
  6  7  4
  7  8  1
  8  9  3
  7 10  1
 10 11  3
  7 12  1
 12 13  4
  7 13  1
 13 14  4
  7 14  1
 14 15  4
  7 15  1
 15 16  4
  7 16  1
 16 17  4
  7 17  1
 12 17  4
  5 18  1
 18 19  1
 18 20  1
 18 21  1
  1 22  1
  1 23  1
  1 24  1
  3 25  1
  3 26  1
  3 27  1
  4 28  1
  4 29  1
  4 30  1
 19 31  1
 19 32  1
 19 33  1
 20 34  1
 20 35  1
 20 36  1
 21 37  1
 21 38  1
 21 39  1
M  END
$$$$
