
     RDKit          3D

 57 60  0  0  0  0  0  0  0  0999 V2000
    4.9789    0.7942   -1.9990 C   0  0  0  0  0  0  0  0  0  0  0  0
    4.0197    0.4368   -1.0134 O   0  0  0  0  0  0  0  0  0  0  0  0
    4.4758    0.2064    0.2601 C   0  0  0  0  0  0  0  0  0  0  0  0
    5.8034    0.3729    0.6709 C   0  0  0  0  0  0  0  0  0  0  0  0
    6.1738    0.1168    1.9952 C   0  0  0  0  0  0  0  0  0  0  0  0
    5.2238   -0.3064    2.9211 C   0  0  0  0  0  0  0  0  0  0  0  0
    3.8983   -0.4743    2.5249 C   0  0  0  0  0  0  0  0  0  0  0  0
    3.5209   -0.2197    1.2007 C   0  0  0  0  0  0  0  0  0  0  0  0
    2.1469   -0.4041    0.8353 C   0  0  0  0  0  0  0  0  0  0  0  0
    0.9946   -0.5553    0.5280 C   0  0  0  0  0  0  0  0  0  0  0  0
   -0.3735   -0.7504    0.1552 C   0  0  0  0  0  0  0  0  0  0  0  0
   -1.3533    0.0604    0.6105 C   0  0  0  0  0  0  0  0  0  0  0  0
   -2.7307   -0.2581    0.2490 N   0  0  0  0  0  0  0  0  0  0  0  0
   -3.1844    0.2930   -1.0221 C   0  0  0  0  0  0  0  0  0  0  0  0
   -4.2601   -0.3516   -1.6473 C   0  0  0  0  0  0  0  0  0  0  0  0
   -4.7918    0.1424   -2.8398 C   0  0  0  0  0  0  0  0  0  0  0  0
   -4.2654    1.2994   -3.4087 C   0  0  0  0  0  0  0  0  0  0  0  0
   -3.2165    1.9677   -2.7802 C   0  0  0  0  0  0  0  0  0  0  0  0
   -2.6845    1.4750   -1.5851 C   0  0  0  0  0  0  0  0  0  0  0  0
   -3.6935    0.3020    1.6016 S   0  0  0  0  0  0  0  0  0  0  0  0
   -4.8449    1.0623    1.1667 O   0  0  0  0  0  0  0  0  0  0  0  0
   -3.7828   -0.7559    2.5863 O   0  0  0  0  0  0  0  0  0  0  0  0
   -2.4906    1.4277    2.1803 C   0  0  0  0  0  0  0  0  0  0  0  0
   -2.7282    2.4593    3.0761 C   0  0  0  0  0  0  0  0  0  0  0  0
   -1.6614    3.2984    3.3816 C   0  0  0  0  0  0  0  0  0  0  0  0
   -0.4136    3.0984    2.7739 C   0  0  0  0  0  0  0  0  0  0  0  0
   -0.2159    2.0540    1.8577 C   0  0  0  0  0  0  0  0  0  0  0  0
   -1.2650    1.1902    1.5652 C   0  0  0  0  0  0  0  0  0  0  0  0
   -0.5401   -2.3045   -0.9306 Si  0  0  0  0  0  4  0  0  0  0  0  0
   -0.7017   -1.8237   -2.7385 C   0  0  0  0  0  0  0  0  0  0  0  0
   -1.9911   -3.3709   -0.3938 C   0  0  0  0  0  0  0  0  0  0  0  0
    1.0083   -3.3949   -0.7770 C   0  0  0  0  0  0  0  0  0  0  0  0
    5.4428    1.7581   -1.7656 H   0  0  0  0  0  0  0  0  0  0  0  0
    5.7330    0.0097   -2.1212 H   0  0  0  0  0  0  0  0  0  0  0  0
    4.4535    0.9012   -2.9529 H   0  0  0  0  0  0  0  0  0  0  0  0
    6.5772    0.7032   -0.0141 H   0  0  0  0  0  0  0  0  0  0  0  0
    7.2085    0.2487    2.3029 H   0  0  0  0  0  0  0  0  0  0  0  0
    5.5139   -0.5061    3.9495 H   0  0  0  0  0  0  0  0  0  0  0  0
    3.1600   -0.8059    3.2517 H   0  0  0  0  0  0  0  0  0  0  0  0
   -4.6927   -1.2450   -1.2037 H   0  0  0  0  0  0  0  0  0  0  0  0
   -5.6229   -0.3706   -3.3166 H   0  0  0  0  0  0  0  0  0  0  0  0
   -4.6819    1.6882   -4.3346 H   0  0  0  0  0  0  0  0  0  0  0  0
   -2.8169    2.8803   -3.2154 H   0  0  0  0  0  0  0  0  0  0  0  0
   -1.8793    2.0327   -1.1178 H   0  0  0  0  0  0  0  0  0  0  0  0
   -3.7095    2.6074    3.5158 H   0  0  0  0  0  0  0  0  0  0  0  0
   -1.7970    4.1193    4.0822 H   0  0  0  0  0  0  0  0  0  0  0  0
    0.4106    3.7706    3.0058 H   0  0  0  0  0  0  0  0  0  0  0  0
    0.7525    1.9603    1.3773 H   0  0  0  0  0  0  0  0  0  0  0  0
   -0.6755   -2.7154   -3.3722 H   0  0  0  0  0  0  0  0  0  0  0  0
   -1.6405   -1.3021   -2.9347 H   0  0  0  0  0  0  0  0  0  0  0  0
    0.1229   -1.1698   -3.0380 H   0  0  0  0  0  0  0  0  0  0  0  0
   -1.9599   -3.5492    0.6851 H   0  0  0  0  0  0  0  0  0  0  0  0
   -1.9542   -4.3409   -0.8992 H   0  0  0  0  0  0  0  0  0  0  0  0
   -2.9485   -2.9071   -0.6392 H   0  0  0  0  0  0  0  0  0  0  0  0
    0.8747   -4.3136   -1.3560 H   0  0  0  0  0  0  0  0  0  0  0  0
    1.8899   -2.8739   -1.1614 H   0  0  0  0  0  0  0  0  0  0  0  0
    1.1836   -3.6679    0.2677 H   0  0  0  0  0  0  0  0  0  0  0  0
  1  2  1  0
  2  3  1  0
  3  4  2  0
  4  5  1  0
  5  6  2  0
  6  7  1  0
  7  8  2  0
  8  9  1  0
  9 10  3  0
 10 11  1  0
 11 12  2  3
 12 13  1  0
 13 14  1  0
 14 15  2  0
 15 16  1  0
 16 17  2  0
 17 18  1  0
 18 19  2  0
 13 20  1  0
 20 21  2  0
 20 22  2  0
 20 23  1  0
 23 24  2  0
 24 25  1  0
 25 26  2  0
 26 27  1  0
 27 28  2  0
 11 29  1  0
 29 30  1  0
 29 31  1  0
 29 32  1  0
  8  3  1  0
 28 12  1  0
 19 14  1  0
 28 23  1  0
  1 33  1  0
  1 34  1  0
  1 35  1  0
  4 36  1  0
  5 37  1  0
  6 38  1  0
  7 39  1  0
 15 40  1  0
 16 41  1  0
 17 42  1  0
 18 43  1  0
 19 44  1  0
 24 45  1  0
 25 46  1  0
 26 47  1  0
 27 48  1  0
 30 49  1  0
 30 50  1  0
 30 51  1  0
 31 52  1  0
 31 53  1  0
 31 54  1  0
 32 55  1  0
 32 56  1  0
 32 57  1  0
M  END
