
 OpenBabel09252519353D

 53 52  0  0  0  0  0  0  0  0999 V2000
    0.9699    0.0238   -0.0923 C   0  0  0  0  0  0  0  0  0  0  0  0
    0.2432    1.9859   -0.7044 Rh  0  0  0  0  0  0  0  0  0  0  0  0
    2.5376    2.3419   -2.2872 I   0  0  0  0  0  0  0  0  0  0  0  0
   -1.0814    0.8141   -2.8880 I   0  0  0  0  0  0  0  0  0  0  0  0
   -0.4835    3.9480   -1.3165 C   0  0  0  0  0  0  0  0  0  0  0  0
   -0.8895    5.0443   -1.6585 O   0  0  0  0  0  0  0  0  0  0  0  0
   -1.7899    1.6705    0.6982 P   0  0  0  0  0  4  0  0  0  0  0  0
   -1.3832    0.6081    2.1317 C   0  0  0  0  0  0  0  0  0  0  0  0
   -0.2940    1.2699    2.9599 C   0  0  0  0  0  0  0  0  0  0  0  0
   -2.3793    3.2978    1.2926 C   0  0  0  0  0  0  0  0  0  0  0  0
   -2.7171    4.1802    0.1019 C   0  0  0  0  0  0  0  0  0  0  0  0
   -3.1013    0.8737   -0.2990 C   0  0  0  0  0  0  0  0  0  0  0  0
   -3.4390    1.7561   -1.4897 C   0  0  0  0  0  0  0  0  0  0  0  0
    1.4170    3.0243    1.2306 P   0  0  0  0  0  4  0  0  0  0  0  0
    0.7721    2.3129    2.7885 C   0  0  0  0  0  0  0  0  0  0  0  0
    1.0110    0.8119    2.7971 C   0  0  0  0  0  0  0  0  0  0  0  0
    3.2121    2.6915    1.1052 C   0  0  0  0  0  0  0  0  0  0  0  0
    3.7478    3.2823   -0.1888 C   0  0  0  0  0  0  0  0  0  0  0  0
    1.1294    4.8315    1.2202 C   0  0  0  0  0  0  0  0  0  0  0  0
    1.6651    5.4223   -0.0738 C   0  0  0  0  0  0  0  0  0  0  0  0
    0.6132   -0.7178   -0.7761 H   0  0  0  0  0  0  0  0  0  0  0  0
    0.6132   -0.1975    0.8919 H   0  0  0  0  0  0  0  0  0  0  0  0
    2.0399    0.0238   -0.0923 H   0  0  0  0  0  0  0  0  0  0  0  0
   -2.2569    0.4726    2.7344 H   0  0  0  0  0  0  0  0  0  0  0  0
   -1.0385   -0.3433    1.7841 H   0  0  0  0  0  0  0  0  0  0  0  0
   -0.6386    2.2214    3.3075 H   0  0  0  0  0  0  0  0  0  0  0  0
   -0.0562    0.6488    3.7981 H   0  0  0  0  0  0  0  0  0  0  0  0
    0.5797    1.4055    2.3572 H   0  0  0  0  0  0  0  0  0  0  0  0
   -3.2530    3.1622    1.8953 H   0  0  0  0  0  0  0  0  0  0  0  0
   -1.6126    3.7636    1.8757 H   0  0  0  0  0  0  0  0  0  0  0  0
   -3.4839    3.7143   -0.4811 H   0  0  0  0  0  0  0  0  0  0  0  0
   -3.0618    5.1316    0.4495 H   0  0  0  0  0  0  0  0  0  0  0  0
   -1.8435    4.3157   -0.5008 H   0  0  0  0  0  0  0  0  0  0  0  0
   -2.7566   -0.0777   -0.6466 H   0  0  0  0  0  0  0  0  0  0  0  0
   -3.9749    0.7382    0.3037 H   0  0  0  0  0  0  0  0  0  0  0  0
   -2.5654    1.8917   -2.0924 H   0  0  0  0  0  0  0  0  0  0  0  0
   -4.2058    1.2902   -2.0727 H   0  0  0  0  0  0  0  0  0  0  0  0
   -3.7837    2.7076   -1.1421 H   0  0  0  0  0  0  0  0  0  0  0  0
    1.2765    2.7591    3.6199 H   0  0  0  0  0  0  0  0  0  0  0  0
   -0.2775    2.5075    2.8618 H   0  0  0  0  0  0  0  0  0  0  0  0
    2.0606    0.6173    2.7238 H   0  0  0  0  0  0  0  0  0  0  0  0
    0.6339    0.3959    3.7080 H   0  0  0  0  0  0  0  0  0  0  0  0
    0.5066    0.3656    1.9656 H   0  0  0  0  0  0  0  0  0  0  0  0
    3.7165    3.1377    1.9366 H   0  0  0  0  0  0  0  0  0  0  0  0
    3.3802    1.6348    1.1112 H   0  0  0  0  0  0  0  0  0  0  0  0
    3.5796    4.3390   -0.1949 H   0  0  0  0  0  0  0  0  0  0  0  0
    4.7974    3.0878   -0.2622 H   0  0  0  0  0  0  0  0  0  0  0  0
    3.2434    2.8361   -1.0203 H   0  0  0  0  0  0  0  0  0  0  0  0
    0.0798    5.0261    1.2935 H   0  0  0  0  0  0  0  0  0  0  0  0
    1.6338    5.2777    2.0516 H   0  0  0  0  0  0  0  0  0  0  0  0
    1.1607    4.9761   -0.9053 H   0  0  0  0  0  0  0  0  0  0  0  0
    1.4969    6.4790   -0.0799 H   0  0  0  0  0  0  0  0  0  0  0  0
    2.7147    5.2278   -0.1472 H   0  0  0  0  0  0  0  0  0  0  0  0
  1  2  1  0  0  0  0
  1 21  1  0  0  0  0
  1 22  1  0  0  0  0
  1 23  1  0  0  0  0
  2  3  1  0  0  0  0
  2  4  1  0  0  0  0
  2  5  1  0  0  0  0
  2  7  1  0  0  0  0
  2 14  1  0  0  0  0
  5  6  3  0  0  0  0
  7  8  1  0  0  0  0
  7 10  1  0  0  0  0
  7 12  1  0  0  0  0
  8  9  1  0  0  0  0
  8 24  1  0  0  0  0
  8 25  1  0  0  0  0
  9 26  1  0  0  0  0
  9 27  1  0  0  0  0
  9 28  1  0  0  0  0
 10 11  1  0  0  0  0
 10 29  1  0  0  0  0
 10 30  1  0  0  0  0
 11 31  1  0  0  0  0
 11 32  1  0  0  0  0
 11 33  1  0  0  0  0
 12 13  1  0  0  0  0
 12 34  1  0  0  0  0
 12 35  1  0  0  0  0
 13 36  1  0  0  0  0
 13 37  1  0  0  0  0
 13 38  1  0  0  0  0
 14 15  1  0  0  0  0
 14 17  1  0  0  0  0
 14 19  1  0  0  0  0
 15 16  1  0  0  0  0
 15 39  1  0  0  0  0
 15 40  1  0  0  0  0
 16 41  1  0  0  0  0
 16 42  1  0  0  0  0
 16 43  1  0  0  0  0
 17 18  1  0  0  0  0
 17 44  1  0  0  0  0
 17 45  1  0  0  0  0
 18 46  1  0  0  0  0
 18 47  1  0  0  0  0
 18 48  1  0  0  0  0
 19 20  1  0  0  0  0
 19 49  1  0  0  0  0
 19 50  1  0  0  0  0
 20 51  1  0  0  0  0
 20 52  1  0  0  0  0
 20 53  1  0  0  0  0
M  END
$$$$
