
  --CCDC--092525    3D                              

 19 24  0  0  0  0  0  0  0  0999 V2000
   -0.0866    0.1075   -0.0096 H      0
   -1.6328    0.4100   -0.0000 Si     0
   -3.4620    1.1303   -0.6364 Cl     0
   -3.2347    0.1079    1.2703 Cl     0
   -3.0730   -0.9386   -0.6153 Cl     0
    0.6436    1.8842    0.0025 Mn     0
    1.2330    0.7692   -1.9090 C      0
    1.5263    0.2144   -2.8602 O      0
   -0.7298    2.4408   -1.7426 C      0
   -1.4122    2.7112   -2.6142 O      0
    2.6439    2.2706    0.7641 C      0
    2.2113    3.3925    0.0231 C      0
    1.0487    3.9063    0.7010 C      0
    0.4744    3.0322    1.8177 C      0
   -0.7284    3.1757    2.7228 C      0
    1.7320    2.1521    1.8691 C      0
   -1.5614    2.5873    2.3430 H      0
   -1.0469    4.2144    2.7836 H      0
   -0.5004    2.8292    3.7289 H      0
  1  2  1
  2  3  1
  2  4  1
  2  5  1
  2  6  1
  1  6  1
  6  7  1
  7  8  3
  6  9  1
  9 10  3
  6 11  1
 11 12  4
  6 12  1
 12 13  4
  6 13  1
 13 14  4
  6 14  1
 14 15  1
 14 16  4
  6 16  1
 11 16  4
 15 17  1
 15 18  1
 15 19  1
M  END
$$$$
