
 OpenBabel09252516383D

 49 54  0  0  0  0  0  0  0  0999 V2000
    0.9471    0.0847    0.0053 C   0  0  0  0  0  0  0  0  0  0  0  0
    0.4405   -1.3049   -0.3449 C   0  0  0  0  0  0  0  0  0  0  0  0
    0.7583   -1.8493   -1.4997 N   0  0  0  0  0  0  0  0  0  0  0  0
    1.6034   -1.1137   -2.4513 C   0  0  0  0  0  0  0  0  0  0  0  0
    2.8701   -1.9086   -2.7235 C   0  0  0  0  0  0  0  0  0  0  0  0
    2.5029   -3.2609   -3.3124 C   0  0  0  0  0  0  0  0  0  0  0  0
    1.7679   -3.0644   -4.5702 N   0  0  0  0  0  0  0  0  0  0  0  0
    1.3053   -4.1070   -5.2328 C   0  0  0  0  0  0  0  0  0  0  0  0
    0.6565   -3.9249   -6.3825 C   0  0  0  0  0  0  0  0  0  0  0  0
    0.4737   -2.6223   -6.8954 C   0  0  0  0  0  0  0  0  0  0  0  0
    0.9485   -1.5741   -6.2127 O   0  0  0  0  0  0  0  0  0  0  0  0
    1.5788   -1.7637   -5.0717 Cu  0  0  0  0  0  0  0  0  0  0  0  0
    3.3797   -0.9672   -5.2783 O   0  0  0  0  0  0  0  0  0  0  0  0
    4.3048   -1.0146   -4.2021 C   0  0  0  0  0  0  0  0  0  0  0  0
    4.7326   -2.2628   -3.6698 C   0  0  0  0  0  0  0  0  0  0  0  0
    5.4013   -2.2924   -2.4352 C   0  0  0  0  0  0  0  0  0  0  0  0
    5.8656   -1.1921   -1.9200 C   0  0  0  0  0  0  0  0  0  0  0  0
    5.7089    0.0228   -2.6003 C   0  0  0  0  0  0  0  0  0  0  0  0
    4.7885    0.1105   -3.6729 C   0  0  0  0  0  0  0  0  0  0  0  0
   -0.2250   -2.4354   -8.1096 C   0  0  0  0  0  0  0  0  0  0  0  0
   -0.7256   -3.4786   -8.8034 C   0  0  0  0  0  0  0  0  0  0  0  0
   -0.5706   -4.8074   -8.3466 C   0  0  0  0  0  0  0  0  0  0  0  0
   -1.0935   -5.8865   -9.0735 C   0  0  0  0  0  0  0  0  0  0  0  0
   -0.9299   -7.1584   -8.6080 C   0  0  0  0  0  0  0  0  0  0  0  0
   -0.2512   -7.4024   -7.4197 C   0  0  0  0  0  0  0  0  0  0  0  0
    0.2689   -6.3733   -6.6884 C   0  0  0  0  0  0  0  0  0  0  0  0
    0.1188   -5.0601   -7.1385 C   0  0  0  0  0  0  0  0  0  0  0  0
    0.5905    0.3603    0.9757 H   0  0  0  0  0  0  0  0  0  0  0  0
    0.5905    0.7873   -0.7186 H   0  0  0  0  0  0  0  0  0  0  0  0
    2.0171    0.0847    0.0053 H   0  0  0  0  0  0  0  0  0  0  0  0
    0.4183   -2.7818   -1.7347 H   0  0  0  0  0  0  0  0  0  0  0  0
    1.0684   -0.9706   -3.3668 H   0  0  0  0  0  0  0  0  0  0  0  0
    1.8619   -0.1617   -2.0368 H   0  0  0  0  0  0  0  0  0  0  0  0
    3.4853   -1.3731   -3.4162 H   0  0  0  0  0  0  0  0  0  0  0  0
    3.4051   -2.0516   -1.8080 H   0  0  0  0  0  0  0  0  0  0  0  0
    3.3946   -3.8204   -3.5041 H   0  0  0  0  0  0  0  0  0  0  0  0
    1.8877   -3.7963   -2.6198 H   0  0  0  0  0  0  0  0  0  0  0  0
    1.9147   -3.8121   -3.8922 H   0  0  0  0  0  0  0  0  0  0  0  0
    1.4503   -5.0951   -4.8486 H   0  0  0  0  0  0  0  0  0  0  0  0
    4.5466   -3.1703   -4.2052 H   0  0  0  0  0  0  0  0  0  0  0  0
    5.5290   -3.2205   -1.9182 H   0  0  0  0  0  0  0  0  0  0  0  0
    6.3677   -1.2147   -0.9754 H   0  0  0  0  0  0  0  0  0  0  0  0
    6.2814    0.8792   -2.3110 H   0  0  0  0  0  0  0  0  0  0  0  0
   -0.3600   -1.4434   -8.4875 H   0  0  0  0  0  0  0  0  0  0  0  0
   -1.2505   -3.2965   -9.7179 H   0  0  0  0  0  0  0  0  0  0  0  0
   -1.6187   -5.7131   -9.9895 H   0  0  0  0  0  0  0  0  0  0  0  0
   -1.3295   -7.9797   -9.1655 H   0  0  0  0  0  0  0  0  0  0  0  0
   -0.1349   -8.4084   -7.0741 H   0  0  0  0  0  0  0  0  0  0  0  0
    0.7890   -6.5723   -5.7747 H   0  0  0  0  0  0  0  0  0  0  0  0
  1  2  1  0  0  0  0
  1 28  1  0  0  0  0
  1 29  1  0  0  0  0
  1 30  1  0  0  0  0
  2  3  2  0  0  0  0
  2 19  1  0  0  0  0
  3  4  1  0  0  0  0
  3 12  1  0  0  0  0
  3 31  1  0  0  0  0
  4  5  1  0  0  0  0
  4 32  1  0  0  0  0
  4 33  1  0  0  0  0
  5  6  1  0  0  0  0
  5 34  1  0  0  0  0
  5 35  1  0  0  0  0
  6  7  1  0  0  0  0
  6 36  1  0  0  0  0
  6 37  1  0  0  0  0
  7  8  2  0  0  0  0
  7 12  1  0  0  0  0
  7 38  1  0  0  0  0
  8  9  1  0  0  0  0
  8 39  1  0  0  0  0
  9 10  1  0  0  0  0
  9 27  2  0  0  0  0
 10 11  1  0  0  0  0
 10 20  2  0  0  0  0
 11 12  1  0  0  0  0
 12 13  1  0  0  0  0
 13 14  1  0  0  0  0
 14 15  1  0  0  0  0
 14 19  2  0  0  0  0
 15 16  2  0  0  0  0
 15 40  1  0  0  0  0
 16 17  1  0  0  0  0
 16 41  1  0  0  0  0
 17 18  2  0  0  0  0
 17 42  1  0  0  0  0
 18 19  1  0  0  0  0
 18 43  1  0  0  0  0
 20 21  1  0  0  0  0
 20 44  1  0  0  0  0
 21 22  2  0  0  0  0
 21 45  1  0  0  0  0
 22 23  1  0  0  0  0
 22 27  1  0  0  0  0
 23 24  2  0  0  0  0
 23 46  1  0  0  0  0
 24 25  1  0  0  0  0
 24 47  1  0  0  0  0
 25 26  2  0  0  0  0
 25 48  1  0  0  0  0
 26 27  1  0  0  0  0
 26 49  1  0  0  0  0
M  END
$$$$
