
 OpenBabel09252516083D

 45 50  0  0  1  0  0  0  0  0999 V2000
    1.0851   -0.0493    0.0183 H   0  0  0  0  0  0  0  0  0  0  0  0
    2.1551   -0.0493    0.0183 C   0  0  0  0  0  0  0  0  0  0  0  0
    2.5117   -1.0242    0.2774 H   0  0  0  0  0  0  0  0  0  0  0  0
    2.5117    0.2137   -0.9557 H   0  0  0  0  0  0  0  0  0  0  0  0
    2.7784    1.1949    1.2674 Si  0  0  0  0  0  0  0  0  0  0  0  0
    2.1551    2.8988    0.8144 C   0  0  0  0  0  0  0  0  0  0  0  0
    1.3729    3.5909    1.6861 C   0  0  0  0  0  0  0  0  0  0  0  0
    0.2667    4.5700    2.9192 Cr  0  0  0  0  0  0  0  0  0  0  0  0
   -0.2630    6.6511    2.8145 C   0  0  0  0  0  0  0  0  0  0  0  0
   -0.5631    7.8301    2.7552 O   0  0  0  0  0  0  0  0  0  0  0  0
    0.5045    6.0057    4.5018 C   0  0  0  0  0  0  0  0  0  0  0  0
    0.6392    6.8191    5.3984 O   0  0  0  0  0  0  0  0  0  0  0  0
   -2.4398    3.5906    1.7443 C   0  0  2  0  0  0  0  0  0  0  0  0
   -3.4406    3.8042    1.4318 H   0  0  0  0  0  0  0  0  0  0  0  0
   -2.4153    2.5182    2.8112 C   0  0  1  0  0  0  0  0  0  0  0  0
   -3.1801    1.7699    2.8072 H   0  0  0  0  0  0  0  0  0  0  0  0
   -1.3289    2.7401    3.8426 C   0  0  1  0  0  0  0  0  0  0  0  0
   -1.7840    2.2814    4.6955 H   0  0  0  0  0  0  0  0  0  0  0  0
    0.0099    3.0824    3.2053 C   0  0  1  0  0  0  0  0  0  0  0  0
    0.5017    2.2898    3.7296 H   0  0  0  0  0  0  0  0  0  0  0  0
    0.0805    3.5842    1.7730 C   0  0  1  0  0  0  0  0  0  0  0  0
    0.6532    3.3196    0.9087 H   0  0  0  0  0  0  0  0  0  0  0  0
   -1.1703    3.6295    0.9204 C   0  0  2  0  0  0  0  0  0  0  0  0
   -1.4605    3.4652   -0.0963 H   0  0  0  0  0  0  0  0  0  0  0  0
    2.6068    3.6513   -0.8368 Si  0  0  0  0  0  0  0  0  0  0  0  0
    4.4663    3.8015   -0.9656 C   0  0  0  0  0  0  0  0  0  0  0  0
    4.9092    2.8310   -0.8828 H   0  0  0  0  0  0  0  0  0  0  0  0
    4.7248    4.2321   -1.9104 H   0  0  0  0  0  0  0  0  0  0  0  0
    4.8290    4.4275   -0.1772 H   0  0  0  0  0  0  0  0  0  0  0  0
    1.9730    2.5573   -2.2147 C   0  0  0  0  0  0  0  0  0  0  0  0
    0.9090    2.4713   -2.1410 H   0  0  0  0  0  0  0  0  0  0  0  0
    2.2315    2.9878   -3.1595 H   0  0  0  0  0  0  0  0  0  0  0  0
    2.4158    1.5868   -2.1319 H   0  0  0  0  0  0  0  0  0  0  0  0
    1.8329    5.3474   -0.9816 C   0  0  0  0  0  0  0  0  0  0  0  0
    0.7689    5.2615   -0.9079 H   0  0  0  0  0  0  0  0  0  0  0  0
    2.1956    5.9734   -0.1932 H   0  0  0  0  0  0  0  0  0  0  0  0
    2.0914    5.7780   -1.9264 H   0  0  0  0  0  0  0  0  0  0  0  0
    2.1551    0.7353    2.9695 C   0  0  0  0  0  0  0  0  0  0  0  0
    2.5117   -0.2397    3.2286 H   0  0  0  0  0  0  0  0  0  0  0  0
    2.5117    1.4472    3.6842 H   0  0  0  0  0  0  0  0  0  0  0  0
    1.0851    0.7353    2.9694 H   0  0  0  0  0  0  0  0  0  0  0  0
    4.6484    1.1949    1.2674 C   0  0  0  0  0  0  0  0  0  0  0  0
    5.0051    0.2200    1.5266 H   0  0  0  0  0  0  0  0  0  0  0  0
    5.0051    1.4579    0.2935 H   0  0  0  0  0  0  0  0  0  0  0  0
    5.0051    1.9069    1.9821 H   0  0  0  0  0  0  0  0  0  0  0  0
  1  2  1  0  0  0  0
  2  3  1  0  0  0  0
  2  4  1  0  0  0  0
  2  5  1  0  0  0  0
  5  6  1  0  0  0  0
  5 38  1  0  0  0  0
  5 42  1  0  0  0  0
  6  7  2  0  0  0  0
  6 25  1  0  0  0  0
  7  8  2  0  0  0  0
  8  9  1  0  0  0  0
  8 11  1  0  0  0  0
  8 13  1  0  0  0  0
  8 15  1  0  0  0  0
  8 17  1  0  0  0  0
  8 19  1  0  0  0  0
  8 21  1  0  0  0  0
  8 23  1  0  0  0  0
  9 10  3  0  0  0  0
 11 12  3  0  0  0  0
 13 14  1  6  0  0  0
 13 15  1  0  0  0  0
 13 23  1  0  0  0  0
 15 16  1  1  0  0  0
 15 17  1  0  0  0  0
 17 18  1  1  0  0  0
 17 19  1  0  0  0  0
 19 20  1  1  0  0  0
 19 21  1  0  0  0  0
 21 22  1  6  0  0  0
 21 23  1  0  0  0  0
 23 24  1  6  0  0  0
 25 26  1  0  0  0  0
 25 30  1  0  0  0  0
 25 34  1  0  0  0  0
 26 27  1  0  0  0  0
 26 28  1  0  0  0  0
 26 29  1  0  0  0  0
 30 31  1  0  0  0  0
 30 32  1  0  0  0  0
 30 33  1  0  0  0  0
 34 35  1  0  0  0  0
 34 36  1  0  0  0  0
 34 37  1  0  0  0  0
 38 39  1  0  0  0  0
 38 40  1  0  0  0  0
 38 41  1  0  0  0  0
 42 43  1  0  0  0  0
 42 44  1  0  0  0  0
 42 45  1  0  0  0  0
M  END
$$$$
