
  --CCDC--092525    3D                              

 53 64  0  0  0  0  0  0  0  0999 V2000
   -0.9553    0.0412    4.1514 H      0
   -0.4999    1.0003    3.9131 C      0
   -1.2218    1.5945    3.3578 H      0
   -0.2804    1.5118    4.8481 H      0
    0.7219    0.8069    3.1463 C      0
    1.7013    0.5938    2.5918 N      0
    3.5881    0.2066    1.6419 Ru     0
    3.3206    2.2220    2.3110 C      0
    3.1782    3.2951    2.6672 O      0
    1.6862    1.5701    0.3732 Br     0
    1.1668   -0.7956   -0.6473 Ru     3
    2.6796    0.4970   -1.4388 C      0
    3.4862    1.1703   -1.8793 O      0
    0.7893    0.5808   -2.2393 N      0
    0.7039    1.2945   -3.1233 C      0
    0.6991    2.2524   -4.2187 C      0
   -0.3129    2.4509   -4.5607 H      0
    1.2727    1.8565   -5.0546 H      0
    1.1540    3.1967   -3.9246 H      0
   -0.4651   -1.9026   -0.7952 C      0
   -0.7494   -0.9479   -1.3440 H      0
   -0.1504   -1.6102    0.6939 C      0
   -0.3720   -0.7246    1.3830 H      0
    1.2674   -2.0734    0.9870 C      0
    1.8603   -2.6219   -0.2623 C      0
    0.7688   -2.5926   -1.3749 C      0
    1.1266   -1.9615   -2.2613 H      0
    3.2312   -1.9714   -0.6431 C      0
    4.0246   -3.2852   -0.5539 C      0
    3.8730   -3.9113   -1.4271 H      0
    3.7700   -3.8919    0.3046 H      0
    5.0863   -3.0632   -0.4795 H      0
    3.5943   -1.9816   -2.1498 C      0
    2.9654   -2.6923   -2.6789 H      0
    4.6265   -2.2935   -2.2840 H      0
    3.4867   -1.0520   -2.6914 H      0
    4.2538   -1.3048    0.3606 C      0
    5.2241   -0.1459    0.4507 C      0
    5.0464    0.5432   -0.4377 H      0
    5.5483    0.1007    1.9480 C      0
    5.2943    1.1633    2.2632 H      0
    4.7911   -0.9524    2.7307 C      0
    4.1364   -0.3751    3.4697 H      0
    3.9287   -1.7689    1.7260 C      0
    2.4085   -1.8376    2.0506 C      0
    2.3652   -3.3569    2.3406 C      0
    3.2760   -3.6983    2.8247 H      0
    2.2511   -3.9943    1.4749 H      0
    1.5125   -3.6063    2.9707 H      0
    2.0602   -1.7445    3.5596 C      0
    0.9854   -1.8188    3.6928 H      0
    2.4005   -0.8494    4.0646 H      0
    2.5195   -2.5373    4.1424 H      0
  1  2  1
  2  3  1
  2  4  1
  2  5  1
  5  6  3
  6  7  1
  7  8  1
  8  9  3
  7 10  1
 10 11  1
 11 12  1
 12 13  3
 11 14  1
 14 15  3
 15 16  1
 16 17  1
 16 18  1
 16 19  1
 11 20  1
 20 21  1
 20 22  4
 11 22  1
 22 23  1
 22 24  4
 11 24  1
 24 25  4
 11 25  1
 25 26  4
 20 26  4
 11 26  1
 26 27  1
 25 28  1
 28 29  1
 29 30  1
 29 31  1
 29 32  1
 28 33  1
 33 34  1
 33 35  1
 33 36  1
 28 37  1
  7 37  1
 37 38  4
  7 38  1
 38 39  1
 38 40  4
  7 40  1
 40 41  1
 40 42  4
  7 42  1
 42 43  1
 42 44  4
 37 44  4
  7 44  1
 44 45  1
 24 45  1
 45 46  1
 46 47  1
 46 48  1
 46 49  1
 45 50  1
 50 51  1
 50 52  1
 50 53  1
M  CHG  1  11   1
M  END
$$$$
