
     RDKit          3D

 42 41  0  0  0  0  0  0  0  0999 V2000
    0.0571    0.8396   -2.0858 C   0  0  0  0  0  0  0  0  0  0  0  0
    0.0282    0.0985   -0.2563 Pt  0  0  0  0  0  6  0  0  0  0  0  0
   -0.0751   -1.5623   -0.9214 C   0  0  0  0  0  0  0  0  0  0  0  0
    0.2772    1.7932    0.3120 C   0  0  0  0  0  0  0  0  0  0  0  0
   -0.0960   -0.4777    1.2421 N   0  0  0  0  0  0  0  0  0  0  0  0
   -0.2111   -0.7394    2.3650 N   0  0  0  0  0  4  0  0  0  0  0  0
   -0.2221   -0.2818    3.5327 N   0  0  0  0  0  2  0  0  0  0  0  0
   -2.0856    0.1346    0.0897 P   0  0  0  0  0  4  0  0  0  0  0  0
   -2.8564    0.5209   -1.4784 C   0  0  0  0  0  0  0  0  0  0  0  0
   -2.7124    1.3961    1.1859 C   0  0  0  0  0  0  0  0  0  0  0  0
   -2.9241   -1.4039    0.5149 C   0  0  0  0  0  0  0  0  0  0  0  0
    2.0612   -0.3233    0.2809 P   0  0  0  0  0  4  0  0  0  0  0  0
    2.8427    0.6739    1.5293 C   0  0  0  0  0  0  0  0  0  0  0  0
    2.9905    0.1181   -1.2367 C   0  0  0  0  0  0  0  0  0  0  0  0
    2.5881   -1.9917    0.5832 C   0  0  0  0  0  0  0  0  0  0  0  0
    1.0262    0.8449   -2.5438 H   0  0  0  0  0  0  0  0  0  0  0  0
   -0.6021    0.2839   -2.8229 H   0  0  0  0  0  0  0  0  0  0  0  0
   -0.5222    1.7722   -2.2669 H   0  0  0  0  0  0  0  0  0  0  0  0
   -0.1952   -2.5147   -0.3664 H   0  0  0  0  0  0  0  0  0  0  0  0
   -0.9123   -1.8531   -1.6669 H   0  0  0  0  0  0  0  0  0  0  0  0
    0.7048   -1.9848   -1.6618 H   0  0  0  0  0  0  0  0  0  0  0  0
    0.2741    2.1025    1.4045 H   0  0  0  0  0  0  0  0  0  0  0  0
   -0.4893    2.6176    0.0805 H   0  0  0  0  0  0  0  0  0  0  0  0
    1.1686    2.4425    0.0371 H   0  0  0  0  0  0  0  0  0  0  0  0
   -2.7116   -0.3054   -2.1908 H   0  0  0  0  0  0  0  0  0  0  0  0
   -2.5040    1.4583   -1.9544 H   0  0  0  0  0  0  0  0  0  0  0  0
   -3.9023    0.5957   -1.2575 H   0  0  0  0  0  0  0  0  0  0  0  0
   -1.8236    1.9489    1.6141 H   0  0  0  0  0  0  0  0  0  0  0  0
   -3.3529    2.1619    0.7676 H   0  0  0  0  0  0  0  0  0  0  0  0
   -3.2162    0.9586    2.0708 H   0  0  0  0  0  0  0  0  0  0  0  0
   -2.0700   -2.1287    0.7141 H   0  0  0  0  0  0  0  0  0  0  0  0
   -3.4950   -1.8927   -0.2650 H   0  0  0  0  0  0  0  0  0  0  0  0
   -3.4060   -1.3067    1.4780 H   0  0  0  0  0  0  0  0  0  0  0  0
    2.1060    1.4158    1.9714 H   0  0  0  0  0  0  0  0  0  0  0  0
    3.6931    1.2856    1.2311 H   0  0  0  0  0  0  0  0  0  0  0  0
    3.1458    0.0926    2.4239 H   0  0  0  0  0  0  0  0  0  0  0  0
    4.0192   -0.0623   -0.9704 H   0  0  0  0  0  0  0  0  0  0  0  0
    2.7448    1.1626   -1.4896 H   0  0  0  0  0  0  0  0  0  0  0  0
    2.7167   -0.6092   -2.0376 H   0  0  0  0  0  0  0  0  0  0  0  0
    1.6979   -2.6959    0.5152 H   0  0  0  0  0  0  0  0  0  0  0  0
    3.3116   -2.4302   -0.0950 H   0  0  0  0  0  0  0  0  0  0  0  0
    2.9316   -2.1546    1.6234 H   0  0  0  0  0  0  0  0  0  0  0  0
  1  2  1  0
  2  3  1  0
  2  4  1  0
  2  5  1  0
  5  6  2  0
  6  7  2  0
  2  8  1  0
  8  9  1  0
  8 10  1  0
  8 11  1  0
  2 12  1  0
 12 13  1  0
 12 14  1  0
 12 15  1  0
  1 16  1  0
  1 17  1  0
  1 18  1  0
  3 19  1  0
  3 20  1  0
  3 21  1  0
  4 22  1  0
  4 23  1  0
  4 24  1  0
  9 25  1  0
  9 26  1  0
  9 27  1  0
 10 28  1  0
 10 29  1  0
 10 30  1  0
 11 31  1  0
 11 32  1  0
 11 33  1  0
 13 34  1  0
 13 35  1  0
 13 36  1  0
 14 37  1  0
 14 38  1  0
 14 39  1  0
 15 40  1  0
 15 41  1  0
 15 42  1  0
M  CHG  2   6   1   7  -1
M  RAD  2   8   2  12   2
M  END
