
  --CCDC--092525    3D                              

 68 74  0  0  0  0  0  0  0  0999 V2000
    2.3728   -1.4730    0.2577 C      0
    2.2089    0.2191   -0.2476 S      0
    3.7679    0.3966   -1.0740 C      0
    2.3650    0.9664    0.9670 O      0
    0.4096    2.7262    1.1951 U      3
    2.4482    4.3813    0.9598 O      0
    3.3915    4.2170    1.9980 C      0
    4.3765    4.9290    2.0890 O      0
    3.2152    3.0627    2.9839 C      0
    1.8513    2.9247    3.3777 N      0
    1.4760    4.0422    4.2026 C      0
    0.7045    5.1167    3.4459 C      0
   -0.4501    4.4392    2.9823 N      0
   -1.5088    5.1658    2.3789 C      0
   -2.6020    4.1347    2.1180 C      0
   -2.1932    3.0292    1.2926 N      0
   -2.6895    1.7951    1.8272 C      0
   -1.9617    1.3716    3.1082 C      0
   -0.5553    1.0806    2.9759 N      0
    0.1229    1.3891    4.2059 C      0
    1.6169    1.6629    4.0184 C      0
   -0.2339   -0.2370    2.5243 C      0
   -0.7040   -0.5041    1.0947 C      0
   -1.1581   -1.5991    0.8111 O      0
   -0.5447    0.5133    0.1266 O      0
   -2.5890    3.1930   -0.0656 C      0
   -1.9074    4.4217   -0.6611 C      0
   -2.5492    5.1954   -1.3503 O      0
   -0.5230    4.5774   -0.4360 O      0
    1.1725    2.5798   -1.3282 O      0
    1.5582    3.8833   -1.7871 S      0
    3.1150    3.6267   -2.5967 C      0
    0.5528    4.1538   -3.2228 C      0
    1.5624   -1.7573    0.9256 H      0
    3.3137   -1.6295    0.7812 H      0
    2.3503   -2.1367   -0.6041 H      0
    3.8014   -0.2187   -1.9706 H      0
    4.5857    0.0929   -0.4238 H      0
    3.9341    1.4311   -1.3665 H      0
    3.5991    2.1334    2.5514 H      0
    3.8285    3.2484    3.8742 H      0
    0.8762    3.7034    5.0542 H      0
    2.3798    4.4817    4.6424 H      0
    0.4277    5.9354    4.1215 H      0
    1.2807    5.5572    2.6258 H      0
   -0.8463    3.9135    3.7866 H      0
   -1.8783    5.9377    3.0652 H      0
   -1.1881    5.6868    1.4721 H      0
   -2.9541    3.7528    3.0832 H      0
   -3.4719    4.6247    1.6636 H      0
   -3.7547    1.9233    2.0556 H      0
   -2.6603    1.0100    1.0666 H      0
   -2.0969    2.1660    3.8507 H      0
   -2.4622    0.4926    3.5327 H      0
   -0.3497    2.2425    4.7026 H      0
   -0.0047    0.5433    4.8927 H      0
    2.0835    0.8552    3.4426 H      0
    2.1132    1.6644    4.9968 H      0
    0.8497   -0.3942    2.5744 H      0
   -0.6795   -0.9750    3.2027 H      0
   -2.3223    2.3005   -0.6449 H      0
   -3.6792    3.2970   -0.1303 H      0
    3.0905    2.7239   -3.2034 H      0
    3.9166    3.5248   -1.8683 H      0
    3.3539    4.4656   -3.2470 H      0
    0.6619    3.3342   -3.9300 H      0
    0.8383    5.0755   -3.7255 H      0
   -0.4977    4.2281   -2.9496 H      0
  1  2  1
  2  3  1
  2  4  2
  4  5  1
  5  6  1
  6  7  1
  7  8  2
  7  9  1
  9 10  1
  5 10  1
 10 11  1
 11 12  1
 12 13  1
  5 13  1
 13 14  1
 14 15  1
 15 16  1
  5 16  1
 16 17  1
 17 18  1
 18 19  1
  5 19  1
 19 20  1
 20 21  1
 10 21  1
 19 22  1
 22 23  1
 23 24  2
 23 25  1
  5 25  1
 16 26  1
 26 27  1
 27 28  2
 27 29  1
  5 29  1
  5 30  1
 30 31  2
 31 32  1
 31 33  1
  1 34  1
  1 35  1
  1 36  1
  3 37  1
  3 38  1
  3 39  1
  9 40  1
  9 41  1
 11 42  1
 11 43  1
 12 44  1
 12 45  1
 13 46  1
 14 47  1
 14 48  1
 15 49  1
 15 50  1
 17 51  1
 17 52  1
 18 53  1
 18 54  1
 20 55  1
 20 56  1
 21 57  1
 21 58  1
 22 59  1
 22 60  1
 26 61  1
 26 62  1
 32 63  1
 32 64  1
 32 65  1
 33 66  1
 33 67  1
 33 68  1
M  CHG  1   5   1
M  END
$$$$
