
  --CCDC--092525    3D                              

 70 72  0  0  0  0  0  0  0  0999 V2000
   -0.0642   -0.4264   -0.6776 C      0
    1.3530   -0.2743   -0.9648 C      0
    2.4722   -0.2073   -1.1786 N      0
    4.3521   -0.0949   -1.5378 Co     3
    4.5444    1.3190   -2.8355 C      0
    4.6379    2.8246   -3.0120 C      0
    4.5831    3.4293   -4.2655 C      0
    4.3698    4.7937   -4.3823 C      0
    4.4007    5.5998   -3.2665 C      0
    4.6508    5.0375   -2.0359 C      0
    4.7482    3.6628   -1.9084 C      0
    4.3937    0.2735   -3.4277 C      0
    4.1688   -0.3388   -4.7808 C      0
    4.4311   -1.6875   -4.9942 C      0
    4.2723   -2.2673   -6.2409 C      0
    3.7988   -1.5187   -7.2941 C      0
    3.4717   -0.1963   -7.0937 C      0
    3.6687    0.3945   -5.8559 C      0
    4.0204   -2.3852   -1.3613 P      0
    2.5213   -2.8889   -2.2450 C      0
    3.6786   -2.9656    0.3181 C      0
    5.2830   -3.4921   -2.0318 C      0
    4.1782    0.9534    0.5226 P      0
    2.7601    2.0813    0.5454 C      0
    5.5626    1.9820    1.0642 C      0
    3.8648   -0.1986    1.8803 C      0
    6.5690   -0.4824   -0.9403 P      0
    7.4706   -1.4674   -2.1631 C      0
    6.7787   -1.2568    0.6777 C      0
    7.5935    1.0127   -0.9457 C      0
   -0.6400    0.3969   -1.0936 H      0
   -0.2217   -0.4367    0.3989 H      0
   -0.4448   -1.3594   -1.0880 H      0
    4.7110    2.8356   -5.1617 H      0
    4.1784    5.2303   -5.3570 H      0
    4.2395    6.6691   -3.3564 H      0
    4.7523    5.6703   -1.1605 H      0
    4.8921    3.2339   -0.9269 H      0
    4.7438   -2.3038   -4.1616 H      0
    4.5119   -3.3163   -6.3838 H      0
    3.6773   -1.9698   -8.2732 H      0
    3.0538    0.3856   -7.9090 H      0
    3.4026    1.4351   -5.7287 H      0
    2.5930   -3.9375   -2.5257 H      0
    1.6399   -2.7955   -1.6185 H      0
    2.3579   -2.3075   -3.1463 H      0
    2.9385   -2.3349    0.7983 H      0
    3.2678   -3.9726    0.2830 H      0
    4.5664   -2.9934    0.9415 H      0
    5.7968   -3.0617   -2.8882 H      0
    4.8215   -4.4242   -2.3516 H      0
    6.0183   -3.7416   -1.2724 H      0
    2.5968    2.5466   -0.4222 H      0
    2.9222    2.8696    1.2761 H      0
    1.8448    1.5734    0.8306 H      0
    6.0799    2.4493    0.2299 H      0
    6.2826    1.3949    1.6280 H      0
    5.2005    2.7725    1.7186 H      0
    2.8266   -0.5127    1.8885 H      0
    4.4884   -1.0843    1.8151 H      0
    4.0675    0.2847    2.8333 H      0
    6.9493   -1.4914   -3.1171 H      0
    7.6225   -2.4842   -1.8194 H      0
    8.4623   -1.0503   -2.3284 H      0
    6.3008   -2.2304    0.6952 H      0
    6.3509   -0.6365    1.4605 H      0
    7.8313   -1.3968    0.9100 H      0
    8.5092    0.8289   -1.5047 H      0
    7.9032    1.2975    0.0542 H      0
    7.0777    1.8528   -1.4044 H      0
  1  2  1
  2  3  3
  3  4  1
  4  5  1
  5  6  1
  6  7  4
  7  8  4
  8  9  4
  9 10  4
 10 11  4
  6 11  4
  5 12  3
  4 12  1
 12 13  1
 13 14  4
 14 15  4
 15 16  4
 16 17  4
 17 18  4
 13 18  4
  4 19  1
 19 20  1
 19 21  1
 19 22  1
  4 23  1
 23 24  1
 23 25  1
 23 26  1
  4 27  1
 27 28  1
 27 29  1
 27 30  1
  1 31  1
  1 32  1
  1 33  1
  7 34  1
  8 35  1
  9 36  1
 10 37  1
 11 38  1
 14 39  1
 15 40  1
 16 41  1
 17 42  1
 18 43  1
 20 44  1
 20 45  1
 20 46  1
 21 47  1
 21 48  1
 21 49  1
 22 50  1
 22 51  1
 22 52  1
 24 53  1
 24 54  1
 24 55  1
 25 56  1
 25 57  1
 25 58  1
 26 59  1
 26 60  1
 26 61  1
 28 62  1
 28 63  1
 28 64  1
 29 65  1
 29 66  1
 29 67  1
 30 68  1
 30 69  1
 30 70  1
M  CHG  1   4   1
M  END
$$$$
