
     RDKit          3D

 42 41  0  0  0  0  0  0  0  0999 V2000
    0.9014   -1.9827    0.3652 C   0  0  0  0  0  0  0  0  0  0  0  0
    0.0714   -0.3775    0.7897 Pt  0  0  0  0  0  6  0  0  0  0  0  0
   -1.3209   -1.4111    1.7314 C   0  0  0  0  0  0  0  0  0  0  0  0
   -0.2174    1.1955    1.7226 C   0  0  0  0  0  0  0  0  0  0  0  0
    1.4669   -0.3481    2.1856 N   0  0  0  0  0  0  0  0  0  0  0  0
    1.3758   -0.8612    3.2174 N   0  0  0  0  0  4  0  0  0  0  0  0
    1.3509   -1.1307    4.3861 N   0  0  0  0  0  2  0  0  0  0  0  0
   -1.4087   -0.0018   -0.6411 P   0  0  0  0  0  4  0  0  0  0  0  0
   -1.4278    1.6240   -1.3869 C   0  0  0  0  0  0  0  0  0  0  0  0
   -1.5089   -1.2703   -1.8186 C   0  0  0  0  0  0  0  0  0  0  0  0
   -3.1027    0.1585    0.1505 C   0  0  0  0  0  0  0  0  0  0  0  0
    1.3897    0.4516   -0.4418 P   0  0  0  0  0  4  0  0  0  0  0  0
    3.1897    0.1957   -0.0566 C   0  0  0  0  0  0  0  0  0  0  0  0
    1.3621    2.2284   -0.6705 C   0  0  0  0  0  0  0  0  0  0  0  0
    1.4303   -0.1368   -2.2121 C   0  0  0  0  0  0  0  0  0  0  0  0
    1.9177   -2.1964    0.0281 H   0  0  0  0  0  0  0  0  0  0  0  0
    0.3709   -2.5217   -0.4940 H   0  0  0  0  0  0  0  0  0  0  0  0
    0.8634   -2.9061    1.0425 H   0  0  0  0  0  0  0  0  0  0  0  0
   -1.7605   -2.2461    1.2694 H   0  0  0  0  0  0  0  0  0  0  0  0
   -0.9081   -1.8017    2.7024 H   0  0  0  0  0  0  0  0  0  0  0  0
   -2.0993   -0.7910    2.1578 H   0  0  0  0  0  0  0  0  0  0  0  0
   -1.1625    1.7509    1.3812 H   0  0  0  0  0  0  0  0  0  0  0  0
    0.3518    2.1284    1.7143 H   0  0  0  0  0  0  0  0  0  0  0  0
   -0.6351    1.2145    2.7900 H   0  0  0  0  0  0  0  0  0  0  0  0
   -1.7595    2.4529   -0.7282 H   0  0  0  0  0  0  0  0  0  0  0  0
   -2.2963    1.5257   -2.1017 H   0  0  0  0  0  0  0  0  0  0  0  0
   -0.6273    1.8699   -2.0932 H   0  0  0  0  0  0  0  0  0  0  0  0
   -1.7567   -0.7981   -2.8149 H   0  0  0  0  0  0  0  0  0  0  0  0
   -2.4282   -1.9196   -1.6303 H   0  0  0  0  0  0  0  0  0  0  0  0
   -0.6618   -1.9094   -2.0402 H   0  0  0  0  0  0  0  0  0  0  0  0
   -3.7557    0.2576   -0.6919 H   0  0  0  0  0  0  0  0  0  0  0  0
   -3.3507   -0.8550    0.5807 H   0  0  0  0  0  0  0  0  0  0  0  0
   -3.0360    0.9522    0.8827 H   0  0  0  0  0  0  0  0  0  0  0  0
    3.8066   -0.0306   -0.8924 H   0  0  0  0  0  0  0  0  0  0  0  0
    3.2597   -0.7124    0.6217 H   0  0  0  0  0  0  0  0  0  0  0  0
    3.6052    1.0065    0.5344 H   0  0  0  0  0  0  0  0  0  0  0  0
    1.4849    2.6218   -1.6695 H   0  0  0  0  0  0  0  0  0  0  0  0
    0.4730    2.7421   -0.2206 H   0  0  0  0  0  0  0  0  0  0  0  0
    2.1935    2.7686   -0.0857 H   0  0  0  0  0  0  0  0  0  0  0  0
    0.4788   -0.0029   -2.7096 H   0  0  0  0  0  0  0  0  0  0  0  0
    2.2540    0.3031   -2.7365 H   0  0  0  0  0  0  0  0  0  0  0  0
    1.6265   -1.2365   -2.1174 H   0  0  0  0  0  0  0  0  0  0  0  0
  1  2  1  0
  2  3  1  0
  2  4  1  0
  2  5  1  0
  5  6  2  0
  6  7  2  0
  2  8  1  0
  8  9  1  0
  8 10  1  0
  8 11  1  0
  2 12  1  0
 12 13  1  0
 12 14  1  0
 12 15  1  0
  1 16  1  0
  1 17  1  0
  1 18  1  0
  3 19  1  0
  3 20  1  0
  3 21  1  0
  4 22  1  0
  4 23  1  0
  4 24  1  0
  9 25  1  0
  9 26  1  0
  9 27  1  0
 10 28  1  0
 10 29  1  0
 10 30  1  0
 11 31  1  0
 11 32  1  0
 11 33  1  0
 13 34  1  0
 13 35  1  0
 13 36  1  0
 14 37  1  0
 14 38  1  0
 14 39  1  0
 15 40  1  0
 15 41  1  0
 15 42  1  0
M  CHG  2   6   1   7  -1
M  RAD  2   8   2  12   2
M  END
