
     RDKit          3D

  0  0  0  0  0  0  0  0  0  0999 V3000
M  V30 BEGIN CTAB
M  V30 COUNTS 114 121 0 0 0
M  V30 BEGIN ATOM
M  V30 1 C -4.792490 0.697550 -2.422148 0
M  V30 2 C -3.589041 0.884525 -3.013171 0
M  V30 3 C -2.478062 0.526477 -2.313330 0
M  V30 4 C -1.309455 0.602172 -3.245252 0
M  V30 5 C -1.326467 1.808876 -4.108166 0
M  V30 6 C -1.637454 -0.559974 -4.291090 0
M  V30 7 C -2.512581 0.004478 -1.067272 0
M  V30 8 N -1.280333 -0.158237 -0.243406 0
M  V30 9 C -0.942872 1.112268 0.332066 0
M  V30 10 C 0.328267 1.339005 0.547251 0
M  V30 11 C 0.435860 2.715718 1.133652 0
M  V30 12 C 1.426140 3.574573 1.558525 0
M  V30 13 C 1.221047 4.830620 2.062505 0
M  V30 14 C -0.054980 5.363713 2.188722 0
M  V30 15 C -1.091955 4.546832 1.771219 0
M  V30 16 C -2.395704 4.922609 1.825334 0
M  V30 17 C -3.344952 4.025605 1.372696 0
M  V30 18 C -2.959622 2.810317 0.888645 0
M  V30 19 C -1.668665 2.352038 0.798340 0
M  V30 20 C -0.800106 3.311417 1.280941 0
M  V30 21 N 1.148225 0.222613 0.261845 0
M  V30 22 C 2.531513 0.690041 0.026395 0
M  V30 23 C 2.912022 1.185543 -1.196185 0
M  V30 24 C 2.084877 1.458612 -2.403909 0
M  V30 25 C 2.680184 2.668480 -3.198325 0
M  V30 26 C 2.338593 0.313009 -3.348733 0
M  V30 27 C 4.212746 1.531596 -1.468072 0
M  V30 28 C 5.212391 1.405948 -0.532347 0
M  V30 29 C 4.841428 0.915199 0.712887 0
M  V30 30 C 3.519453 0.560229 1.011011 0
M  V30 31 C 3.455927 0.415462 2.455709 0
M  V30 32 C 4.632667 -0.441625 2.896935 0
M  V30 33 C 3.921444 1.780217 3.140706 0
M  V30 34 Eu -0.006371 -1.606921 0.381946 0 VAL=7
M  V30 35 N -1.188971 -2.726566 -0.681843 0
M  V30 36 C -1.977987 -3.181342 -1.373130 0
M  V30 37 S -2.398346 -4.174778 -2.559336 0
M  V30 38 O -1.211786 -1.852671 1.869705 0
M  V30 39 C -1.760356 -2.864061 2.416485 0
M  V30 40 C -1.061539 -0.806222 2.845780 0
M  V30 41 C 0.102658 -1.434166 3.477009 0
M  V30 42 O 0.797582 -1.560682 2.251476 0
M  V30 43 C 1.856146 -2.367066 2.577939 0
M  V30 44 O 0.868934 -3.311756 0.350071 0
M  V30 45 C 0.517294 -4.477092 0.891958 0
M  V30 46 C 1.935222 -3.735222 -0.465525 0
M  V30 47 C 2.450575 -2.467510 -0.925775 0
M  V30 48 O 1.103262 -1.965360 -1.180482 0
M  V30 49 C 0.759154 -2.477936 -2.350460 0
M  V30 50 C -3.752705 -0.203585 -0.438916 0
M  V30 51 C -4.173315 -0.829935 0.824864 0
M  V30 52 C -5.535411 -0.214496 1.271464 0
M  V30 53 C -4.594199 -2.246478 0.442525 0
M  V30 54 C -4.883542 0.173105 -1.184365 0
M  V30 55 H -5.696962 0.973511 -2.958793 0
M  V30 56 H -3.596663 1.308461 -4.007361 0
M  V30 57 H -0.484807 0.221360 -2.749279 0
M  V30 58 H -0.263788 2.005308 -4.434369 0
M  V30 59 H -1.731928 2.714530 -3.608605 0
M  V30 60 H -1.896274 1.624172 -5.029340 0
M  V30 61 H -2.187458 -0.140117 -5.139686 0
M  V30 62 H -0.671154 -0.907845 -4.663215 0
M  V30 63 H -2.146911 -1.329069 -3.737532 0
M  V30 64 H 2.382017 3.110963 1.379835 0
M  V30 65 H 2.101370 5.404471 2.365689 0
M  V30 66 H -0.239227 6.332697 2.579588 0
M  V30 67 H -2.644127 5.894052 2.213748 0
M  V30 68 H -4.399186 4.263253 1.393418 0
M  V30 69 H -3.713128 2.144197 0.550746 0
M  V30 70 H 1.062456 1.623973 -2.212351 0
M  V30 71 H 3.362544 2.266955 -3.950471 0
M  V30 72 H 1.804167 3.106880 -3.742982 0
M  V30 73 H 3.113113 3.346161 -2.462842 0
M  V30 74 H 1.426064 -0.077261 -3.784480 0
M  V30 75 H 2.904149 0.714914 -4.256898 0
M  V30 76 H 3.011683 -0.452163 -2.883294 0
M  V30 77 H 4.565669 1.923090 -2.424613 0
M  V30 78 H 6.230622 1.677683 -0.787769 0
M  V30 79 H 5.715966 0.872645 1.343530 0
M  V30 80 H 2.583816 0.125231 2.955272 0
M  V30 81 H 5.556040 0.105152 3.054136 0
M  V30 82 H 4.358245 -0.927446 3.872772 0
M  V30 83 H 4.807926 -1.257111 2.149726 0
M  V30 84 H 2.981455 2.237028 3.481829 0
M  V30 85 H 4.503559 1.558977 4.028077 0
M  V30 86 H 4.373479 2.372708 2.359924 0
M  V30 87 H -1.979772 -3.692178 1.666215 0
M  V30 88 H -1.245041 -3.384682 3.223850 0
M  V30 89 H -2.828945 -2.611269 2.756104 0
M  V30 90 H -1.955126 -0.912296 3.434012 0
M  V30 91 H -0.968420 0.173187 2.461093 0
M  V30 92 H 0.045743 -2.399631 3.873250 0
M  V30 93 H 0.690198 -0.703149 4.109993 0
M  V30 94 H 2.534791 -2.506256 1.766798 0
M  V30 95 H 1.468565 -3.411990 2.862203 0
M  V30 96 H 2.323530 -1.972586 3.472299 0
M  V30 97 H 0.173022 -5.128514 0.015418 0
M  V30 98 H 1.510443 -5.002255 1.192621 0
M  V30 99 H -0.126025 -4.656948 1.696412 0
M  V30 100 H 1.561400 -4.407679 -1.189940 0
M  V30 101 H 2.664920 -4.305286 0.197391 0
M  V30 102 H 2.863796 -2.521330 -1.958440 0
M  V30 103 H 3.039723 -1.814333 -0.341455 0
M  V30 104 H -0.229612 -2.142575 -2.727546 0
M  V30 105 H 0.610092 -3.602368 -2.303047 0
M  V30 106 H 1.529655 -2.336906 -3.090214 0
M  V30 107 H -3.568295 -0.706556 1.679925 0
M  V30 108 H -5.598690 -0.233205 2.394669 0
M  V30 109 H -5.566876 0.827132 0.990969 0
M  V30 110 H -6.358793 -0.796665 0.883561 0
M  V30 111 H -4.909346 -2.259509 -0.646246 0
M  V30 112 H -5.562395 -2.452846 0.974469 0
M  V30 113 H -3.928263 -3.034258 0.691383 0
M  V30 114 H -5.927348 0.072424 -0.835526 0
M  V30 END ATOM
M  V30 BEGIN BOND
M  V30 1 2 1 2
M  V30 2 1 2 3
M  V30 3 1 3 4
M  V30 4 1 4 5
M  V30 5 1 4 6
M  V30 6 2 3 7
M  V30 7 1 7 8
M  V30 8 1 8 9
M  V30 9 2 9 10
M  V30 10 1 10 11
M  V30 11 2 11 12
M  V30 12 1 12 13
M  V30 13 2 13 14
M  V30 14 1 14 15
M  V30 15 2 15 16
M  V30 16 1 16 17
M  V30 17 2 17 18
M  V30 18 1 18 19
M  V30 19 2 19 20
M  V30 20 1 10 21
M  V30 21 1 21 22
M  V30 22 2 22 23
M  V30 23 1 23 24
M  V30 24 1 24 25
M  V30 25 1 24 26
M  V30 26 1 23 27
M  V30 27 2 27 28
M  V30 28 1 28 29
M  V30 29 2 29 30
M  V30 30 1 30 31
M  V30 31 1 31 32
M  V30 32 1 31 33
M  V30 33 1 21 34
M  V30 34 1 34 35
M  V30 35 2 35 36
M  V30 36 2 36 37
M  V30 37 9 38 34
M  V30 38 1 38 39
M  V30 39 1 38 40
M  V30 40 1 40 41
M  V30 41 1 41 42
M  V30 42 1 42 43
M  V30 43 9 44 34
M  V30 44 1 44 45
M  V30 45 1 44 46
M  V30 46 1 46 47
M  V30 47 1 47 48
M  V30 48 1 48 49
M  V30 49 1 7 50
M  V30 50 1 50 51
M  V30 51 1 51 52
M  V30 52 1 51 53
M  V30 53 2 50 54
M  V30 54 1 54 1
M  V30 55 1 34 8
M  V30 56 1 19 9
M  V30 57 1 30 22
M  V30 58 9 42 34
M  V30 59 1 20 11
M  V30 60 9 48 34
M  V30 61 1 20 15
M  V30 62 1 1 55
M  V30 63 1 2 56
M  V30 64 1 4 57
M  V30 65 1 5 58
M  V30 66 1 5 59
M  V30 67 1 5 60
M  V30 68 1 6 61
M  V30 69 1 6 62
M  V30 70 1 6 63
M  V30 71 1 12 64
M  V30 72 1 13 65
M  V30 73 1 14 66
M  V30 74 1 16 67
M  V30 75 1 17 68
M  V30 76 1 18 69
M  V30 77 1 24 70
M  V30 78 1 25 71
M  V30 79 1 25 72
M  V30 80 1 25 73
M  V30 81 1 26 74
M  V30 82 1 26 75
M  V30 83 1 26 76
M  V30 84 1 27 77
M  V30 85 1 28 78
M  V30 86 1 29 79
M  V30 87 1 31 80
M  V30 88 1 32 81
M  V30 89 1 32 82
M  V30 90 1 32 83
M  V30 91 1 33 84
M  V30 92 1 33 85
M  V30 93 1 33 86
M  V30 94 1 39 87
M  V30 95 1 39 88
M  V30 96 1 39 89
M  V30 97 1 40 90
M  V30 98 1 40 91
M  V30 99 1 41 92
M  V30 100 1 41 93
M  V30 101 1 43 94
M  V30 102 1 43 95
M  V30 103 1 43 96
M  V30 104 1 45 97
M  V30 105 1 45 98
M  V30 106 1 45 99
M  V30 107 1 46 100
M  V30 108 1 46 101
M  V30 109 1 47 102
M  V30 110 1 47 103
M  V30 111 1 49 104
M  V30 112 1 49 105
M  V30 113 1 49 106
M  V30 114 1 51 107
M  V30 115 1 52 108
M  V30 116 1 52 109
M  V30 117 1 52 110
M  V30 118 1 53 111
M  V30 119 1 53 112
M  V30 120 1 53 113
M  V30 121 1 54 114
M  V30 END BOND
M  V30 END CTAB
M  END
