
  --CCDC--092525    3D                              

 39 44  0  0  0  0  0  0  0  0999 V2000
    0.5645   -0.6131    0.6823 C      0
    1.8692   -0.0931   -0.5517 Si     0
    3.0373   -1.5439   -0.7128 C      0
    0.9947    0.0525   -2.1977 C      0
    2.7149    1.4312   -0.0715 C      0
    3.7190    1.9610   -0.8816 C      0
    5.2095    2.7470   -2.0842 Cr     0
    3.7927    4.1112   -1.4391 C      0
    3.0127    4.8629   -1.0845 O      0
    3.3536    2.5813   -2.9856 C      0
    2.3321    2.4911   -3.4829 O      0
    6.5402    3.7311   -1.2028 C      0
    6.2850    4.1642   -2.6766 C      0
    5.9769    3.0918   -3.7599 C      0
    5.9237    1.5849   -3.3709 C      0
    6.1787    1.1525   -1.8991 C      0
    6.4872    2.2263   -0.8143 C      0
    2.2710    2.2531    1.4766 Si     0
    2.5164    1.1567    2.9710 C      0
    0.4821    2.7949    1.5189 C      0
    3.2842    3.7926    1.7911 C      0
   -0.1899    0.1626    0.7959 H      0
    1.0085   -0.7996    1.6578 H      0
    0.0671   -1.5244    0.3566 H      0
    3.7956   -1.3466   -1.4676 H      0
    2.4976   -2.4434   -1.0017 H      0
    3.5416   -1.7397    0.2312 H      0
    0.3245   -0.7902   -2.3540 H      0
    1.7121    0.0712   -3.0155 H      0
    0.4057    0.9661   -2.2421 H      0
    1.7163    0.4234    3.0469 H      0
    2.5234    1.7467    3.8851 H      0
    3.4615    0.6217    2.9057 H      0
   -0.1544    1.9963    1.8940 H      0
    0.1370    3.0638    0.5227 H      0
    0.3566    3.6604    2.1661 H      0
    4.2923    3.6779    1.3984 H      0
    3.3570    3.9951    2.8576 H      0
    2.8302    4.6576    1.3122 H      0
  1  2  1
  2  3  1
  2  4  1
  2  5  1
  5  6  4
  6  7  4
  7  8  1
  8  9  3
  7 10  1
 10 11  3
  7 12  1
 12 13  4
  7 13  1
 13 14  4
  7 14  1
 14 15  4
  7 15  1
 15 16  4
  7 16  1
 16 17  4
  7 17  1
 12 17  4
  5 18  1
 18 19  1
 18 20  1
 18 21  1
  1 22  1
  1 23  1
  1 24  1
  3 25  1
  3 26  1
  3 27  1
  4 28  1
  4 29  1
  4 30  1
 19 31  1
 19 32  1
 19 33  1
 20 34  1
 20 35  1
 20 36  1
 21 37  1
 21 38  1
 21 39  1
M  END
$$$$
