
 OpenBabel09252515323D

114121  0  0  0  0  0  0  0  0999 V2000
    0.9202    0.0204   -0.0567 H   0  0  0  0  0  0  0  0  0  0  0  0
    1.9902    0.0204   -0.0567 C   0  0  0  0  0  3  0  0  0  0  0  0
    2.5024   -1.3625   -0.4658 C   0  0  0  0  0  3  0  0  0  0  0  0
    2.1133   -2.0999    0.2048 H   0  0  0  0  0  0  0  0  0  0  0  0
    2.0722   -1.6547   -1.7970 C   0  0  0  0  0  3  0  0  0  0  0  0
    2.5556   -3.0493   -2.1598 C   0  0  0  0  0  0  0  0  0  0  0  0
    3.6236   -3.0824   -2.1039 H   0  0  0  0  0  0  0  0  0  0  0  0
    1.9659   -4.0586   -1.1882 C   0  0  0  0  0  0  0  0  0  0  0  0
    0.8979   -4.0256   -1.2441 H   0  0  0  0  0  0  0  0  0  0  0  0
    2.3062   -5.0404   -1.4436 H   0  0  0  0  0  0  0  0  0  0  0  0
    2.2785   -3.8204   -0.1930 H   0  0  0  0  0  0  0  0  0  0  0  0
    2.1115   -3.3877   -3.5735 C   0  0  0  0  0  0  0  0  0  0  0  0
    1.0435   -3.3547   -3.6294 H   0  0  0  0  0  0  0  0  0  0  0  0
    2.5267   -2.6772   -4.2575 H   0  0  0  0  0  0  0  0  0  0  0  0
    2.4518   -4.3695   -3.8289 H   0  0  0  0  0  0  0  0  0  0  0  0
    2.5596   -0.7407   -2.7811 C   0  0  0  0  0  3  0  0  0  0  0  0
    4.0296   -0.7441   -2.7678 N   0  0  0  0  0  0  0  0  0  0  0  0
    4.9780   -1.0983   -3.8964 C   0  0  0  0  0  0  0  0  0  0  0  0
    6.1651   -0.7107   -3.6405 C   0  0  0  0  0  0  0  0  0  0  0  0
    7.3425   -0.9233   -4.5779 C   0  0  0  0  0  3  0  0  0  0  0  0
    7.9345    0.4310   -4.9753 C   0  0  0  0  0  3  0  0  0  0  0  0
    7.1733    1.0359   -5.4220 H   0  0  0  0  0  0  0  0  0  0  0  0
    8.4435    1.0874   -3.8123 C   0  0  0  0  0  3  0  0  0  0  0  0
    8.8234    2.0438   -4.1054 H   0  0  0  0  0  0  0  0  0  0  0  0
    9.4888    0.3731   -3.1501 C   0  0  0  0  0  3  0  0  0  0  0  0
   10.3030    0.2226   -3.8279 H   0  0  0  0  0  0  0  0  0  0  0  0
    8.9597   -0.9835   -2.6789 C   0  0  0  0  0  3  0  0  0  0  0  0
   10.0853   -1.7701   -2.0273 C   0  0  0  0  0  3  0  0  0  0  0  0
   10.4625   -1.2242   -1.1879 H   0  0  0  0  0  0  0  0  0  0  0  0
    9.5578   -3.1169   -1.5601 C   0  0  0  0  0  3  0  0  0  0  0  0
    9.1806   -3.6629   -2.3994 H   0  0  0  0  0  0  0  0  0  0  0  0
   10.6834   -3.9035   -0.9084 C   0  0  0  0  0  3  0  0  0  0  0  0
   10.3121   -4.8516   -0.5795 H   0  0  0  0  0  0  0  0  0  0  0  0
    9.5570   -2.0348   -4.8597 C   0  0  0  0  0  3  0  0  0  0  0  0
    8.4231   -1.7602   -3.8855 C   0  0  0  0  0  3  0  0  0  0  0  0
    6.2701   -0.0350   -2.3381 N   0  0  0  0  0  0  0  0  0  0  0  0
    7.3770    0.7970   -1.8447 C   0  0  0  0  0  3  0  0  0  0  0  0
    6.4959    1.9853   -1.4525 C   0  0  0  0  0  3  0  0  0  0  0  0
    5.9107    2.6175   -2.7048 C   0  0  0  0  0  0  0  0  0  0  0  0
    5.3215    1.8935   -3.2278 H   0  0  0  0  0  0  0  0  0  0  0  0
    5.0352    3.7973   -2.3150 C   0  0  0  0  0  0  0  0  0  0  0  0
    5.6245    4.5213   -1.7920 H   0  0  0  0  0  0  0  0  0  0  0  0
    4.6233    4.2423   -3.1966 H   0  0  0  0  0  0  0  0  0  0  0  0
    4.2416    3.4589   -1.6821 H   0  0  0  0  0  0  0  0  0  0  0  0
    7.0381    3.0983   -3.6038 C   0  0  0  0  0  0  0  0  0  0  0  0
    7.6273    3.8222   -3.0808 H   0  0  0  0  0  0  0  0  0  0  0  0
    7.6544    2.2677   -3.8782 H   0  0  0  0  0  0  0  0  0  0  0  0
    6.6261    3.5433   -4.4854 H   0  0  0  0  0  0  0  0  0  0  0  0
    5.4360    1.5332   -0.6070 C   0  0  0  0  0  3  0  0  0  0  0  0
    4.8143    2.3712   -0.3701 H   0  0  0  0  0  0  0  0  0  0  0  0
    5.8779    0.9422    0.6165 C   0  0  0  0  0  3  0  0  0  0  0  0
    6.4593    1.6526    1.1663 H   0  0  0  0  0  0  0  0  0  0  0  0
    6.7341   -0.2883    0.3079 C   0  0  0  0  0  3  0  0  0  0  0  0
    7.1007   -0.7077    1.2215 H   0  0  0  0  0  0  0  0  0  0  0  0
    7.9145    0.1293   -0.5746 C   0  0  0  0  0  3  0  0  0  0  0  0
    8.7950    1.1098    0.1828 C   0  0  0  0  0  0  0  0  0  0  0  0
    8.2224    1.9752    0.4439 H   0  0  0  0  0  0  0  0  0  0  0  0
    9.3186    0.4484    1.4472 C   0  0  0  0  0  0  0  0  0  0  0  0
    9.8912   -0.4170    1.1861 H   0  0  0  0  0  0  0  0  0  0  0  0
    9.9384    1.1386    1.9804 H   0  0  0  0  0  0  0  0  0  0  0  0
    8.4948    0.1579    2.0651 H   0  0  0  0  0  0  0  0  0  0  0  0
    9.9652    1.5225   -0.6950 C   0  0  0  0  0  0  0  0  0  0  0  0
   10.5378    0.6571   -0.9561 H   0  0  0  0  0  0  0  0  0  0  0  0
    9.5966    1.9882   -1.5851 H   0  0  0  0  0  0  0  0  0  0  0  0
   10.5850    2.2128   -0.1618 H   0  0  0  0  0  0  0  0  0  0  0  0
    4.9696   -0.3908   -1.6098 Eu  0  0  0  0  0  0  0  0  0  0  0  0
    3.7958   -2.8099   -1.5285 N   0  0  0  0  0  0  0  0  0  0  0  0
    3.4110   -3.3159   -0.3767 C   0  0  0  0  0  0  0  0  0  0  0  0
    2.9373   -3.9391    1.0416 S   0  0  0  0  0  0  0  0  0  0  0  0
    4.4383    0.7886   -0.7847 O   0  0  0  0  0  0  0  0  0  0  0  0
    4.7674    2.0303   -1.3900 C   0  0  0  0  0  0  0  0  0  0  0  0
    5.8310    2.1193   -1.4658 H   0  0  0  0  0  0  0  0  0  0  0  0
    4.3351    2.0763   -2.3676 H   0  0  0  0  0  0  0  0  0  0  0  0
    4.3842    2.8310   -0.7925 H   0  0  0  0  0  0  0  0  0  0  0  0
    5.1832    0.6051    0.5655 C   0  0  0  0  0  0  0  0  0  0  0  0
    4.6828    1.0841    1.3810 H   0  0  0  0  0  0  0  0  0  0  0  0
    6.1604    1.0390    0.5231 H   0  0  0  0  0  0  0  0  0  0  0  0
    5.2695   -0.9262    0.7373 C   0  0  0  0  0  0  0  0  0  0  0  0
    6.1931   -1.2085    1.1979 H   0  0  0  0  0  0  0  0  0  0  0  0
    4.4731   -1.2717    1.3628 H   0  0  0  0  0  0  0  0  0  0  0  0
    5.1457   -1.5330   -0.6486 O   0  0  0  0  0  0  0  0  0  0  0  0
    4.0201   -2.3969   -0.7049 C   0  0  0  0  0  0  0  0  0  0  0  0
    3.1379   -1.8509   -0.4432 H   0  0  0  0  0  0  0  0  0  0  0  0
    3.9180   -2.7855   -1.6966 H   0  0  0  0  0  0  0  0  0  0  0  0
    4.1562   -3.2054   -0.0173 H   0  0  0  0  0  0  0  0  0  0  0  0
    3.8490   -2.7724   -1.8151 O   0  0  0  0  0  0  0  0  0  0  0  0
    4.2465   -3.3788   -3.0360 C   0  0  0  0  0  0  0  0  0  0  0  0
    5.3113   -3.4831   -3.0524 H   0  0  0  0  0  0  0  0  0  0  0  0
    3.7923   -4.3441   -3.1192 H   0  0  0  0  0  0  0  0  0  0  0  0
    3.9354   -2.7664   -3.8564 H   0  0  0  0  0  0  0  0  0  0  0  0
    4.2619   -3.5852   -0.7264 C   0  0  0  0  0  0  0  0  0  0  0  0
    5.3266   -3.6894   -0.7428 H   0  0  0  0  0  0  0  0  0  0  0  0
    3.9624   -3.1282    0.1936 H   0  0  0  0  0  0  0  0  0  0  0  0
    3.6167   -4.9564   -0.8446 C   0  0  0  0  0  0  0  0  0  0  0  0
    3.9162   -5.4134   -1.7646 H   0  0  0  0  0  0  0  0  0  0  0  0
    3.9277   -5.5688   -0.0242 H   0  0  0  0  0  0  0  0  0  0  0  0
    3.3288   -2.1874   -0.5853 O   0  0  0  0  0  0  0  0  0  0  0  0
    2.6751   -1.6387    0.5496 C   0  0  0  0  0  0  0  0  0  0  0  0
    3.4043   -1.3627    1.2824 H   0  0  0  0  0  0  0  0  0  0  0  0
    2.1184   -0.7732    0.2568 H   0  0  0  0  0  0  0  0  0  0  0  0
    2.0101   -2.3669    0.9649 H   0  0  0  0  0  0  0  0  0  0  0  0
    2.0497    0.6675   -2.4656 C   0  0  0  0  0  3  0  0  0  0  0  0
    2.6155    1.6517   -3.4763 C   0  0  0  0  0  0  0  0  0  0  0  0
    3.6842    1.6405   -3.4253 H   0  0  0  0  0  0  0  0  0  0  0  0
    2.1707    1.2543   -4.8743 C   0  0  0  0  0  0  0  0  0  0  0  0
    1.1020    1.2656   -4.9253 H   0  0  0  0  0  0  0  0  0  0  0  0
    2.5690    1.9472   -5.5858 H   0  0  0  0  0  0  0  0  0  0  0  0
    2.5280    0.2704   -5.0961 H   0  0  0  0  0  0  0  0  0  0  0  0
    2.1080    3.0494   -3.1613 C   0  0  0  0  0  0  0  0  0  0  0  0
    1.0392    3.0607   -3.2122 H   0  0  0  0  0  0  0  0  0  0  0  0
    2.4211    3.3292   -2.1771 H   0  0  0  0  0  0  0  0  0  0  0  0
    2.5063    3.7423   -3.8727 H   0  0  0  0  0  0  0  0  0  0  0  0
    2.5030    1.0621   -1.0565 C   0  0  0  0  0  3  0  0  0  0  0  0
    3.5718    1.0979   -1.0205 H   0  0  0  0  0  0  0  0  0  0  0  0
  1  2  1  0  0  0  0
  2  3  1  0  0  0  0
  2113  1  0  0  0  0
  3  4  1  0  0  0  0
  3  5  1  0  0  0  0
  5  6  1  0  0  0  0
  5 16  1  0  0  0  0
  6  7  1  0  0  0  0
  6  8  1  0  0  0  0
  6 12  1  0  0  0  0
  8  9  1  0  0  0  0
  8 10  1  0  0  0  0
  8 11  1  0  0  0  0
 12 13  1  0  0  0  0
 12 14  1  0  0  0  0
 12 15  1  0  0  0  0
 16 17  1  0  0  0  0
 16102  1  0  0  0  0
 17 18  1  0  0  0  0
 17 66  1  0  0  0  0
 18 19  2  0  0  0  0
 18 34  1  0  0  0  0
 19 20  1  0  0  0  0
 19 36  1  0  0  0  0
 20 21  1  0  0  0  0
 20 35  1  0  0  0  0
 21 22  1  0  0  0  0
 21 23  1  0  0  0  0
 23 24  1  0  0  0  0
 23 25  1  0  0  0  0
 25 26  1  0  0  0  0
 25 27  1  0  0  0  0
 27 28  1  0  0  0  0
 27 35  1  0  0  0  0
 28 29  1  0  0  0  0
 28 30  1  0  0  0  0
 30 31  1  0  0  0  0
 30 32  1  0  0  0  0
 32 33  1  0  0  0  0
 32 34  1  0  0  0  0
 34 35  1  0  0  0  0
 36 37  1  0  0  0  0
 36 66  1  0  0  0  0
 37 38  1  0  0  0  0
 37 55  1  0  0  0  0
 38 39  1  0  0  0  0
 38 49  1  0  0  0  0
 39 40  1  0  0  0  0
 39 41  1  0  0  0  0
 39 45  1  0  0  0  0
 41 42  1  0  0  0  0
 41 43  1  0  0  0  0
 41 44  1  0  0  0  0
 45 46  1  0  0  0  0
 45 47  1  0  0  0  0
 45 48  1  0  0  0  0
 49 50  1  0  0  0  0
 49 51  1  0  0  0  0
 51 52  1  0  0  0  0
 51 53  1  0  0  0  0
 53 54  1  0  0  0  0
 53 55  1  0  0  0  0
 55 56  1  0  0  0  0
 56 57  1  0  0  0  0
 56 58  1  0  0  0  0
 56 62  1  0  0  0  0
 58 59  1  0  0  0  0
 58 60  1  0  0  0  0
 58 61  1  0  0  0  0
 62 63  1  0  0  0  0
 62 64  1  0  0  0  0
 62 65  1  0  0  0  0
 66 67  1  0  0  0  0
 66 70  1  0  0  0  0
 66 81  1  0  0  0  0
 66 86  1  0  0  0  0
 66 97  1  0  0  0  0
 67 68  2  0  0  0  0
 68 69  2  0  0  0  0
 70 71  1  0  0  0  0
 70 75  1  0  0  0  0
 71 72  1  0  0  0  0
 71 73  1  0  0  0  0
 71 74  1  0  0  0  0
 75 76  1  0  0  0  0
 75 77  1  0  0  0  0
 75 78  1  0  0  0  0
 78 79  1  0  0  0  0
 78 80  1  0  0  0  0
 78 81  1  0  0  0  0
 81 82  1  0  0  0  0
 82 83  1  0  0  0  0
 82 84  1  0  0  0  0
 82 85  1  0  0  0  0
 86 87  1  0  0  0  0
 86 91  1  0  0  0  0
 87 88  1  0  0  0  0
 87 89  1  0  0  0  0
 87 90  1  0  0  0  0
 91 92  1  0  0  0  0
 91 93  1  0  0  0  0
 91 94  1  0  0  0  0
 94 95  1  0  0  0  0
 94 96  1  0  0  0  0
 94 97  1  0  0  0  0
 97 98  1  0  0  0  0
 98 99  1  0  0  0  0
 98100  1  0  0  0  0
 98101  1  0  0  0  0
102103  1  0  0  0  0
102113  1  0  0  0  0
103104  1  0  0  0  0
103105  1  0  0  0  0
103109  1  0  0  0  0
105106  1  0  0  0  0
105107  1  0  0  0  0
105108  1  0  0  0  0
109110  1  0  0  0  0
109111  1  0  0  0  0
109112  1  0  0  0  0
113114  1  0  0  0  0
M  END
$$$$
