
 OpenBabel09252517423D

 32 34  0  0  0  0  0  0  0  0999 V2000
    1.0165    0.0986    0.0001 C   0  0  0  0  0  0  0  0  0  0  0  0
    0.5098   -0.5992    1.2517 C   0  0  0  0  0  0  0  0  0  0  0  0
    1.0164    0.1358    2.4820 C   0  0  0  0  0  0  0  0  0  0  0  0
    0.1324    0.6661    3.3696 C   0  0  0  0  0  0  0  0  0  0  0  0
   -1.0102   -0.5992    1.2517 C   0  0  0  0  0  0  0  0  0  0  0  0
   -1.5002   -1.3101    0.0620 N   0  0  0  0  0  0  0  0  0  0  0  0
   -1.1932   -0.8932   -1.0987 N   0  0  0  0  0  0  0  0  0  0  0  0
   -0.4625    0.1382   -1.2307 N   0  0  0  0  0  2  0  0  0  0  0  0
   -1.5169   -1.2971    2.5034 C   0  0  0  0  0  0  0  0  0  0  0  0
   -1.3616   -2.5915    2.7262 C   0  0  0  0  0  0  0  0  0  0  0  0
   -1.8214   -2.8222    4.1203 C   0  0  0  0  0  0  0  0  0  0  0  0
   -2.1957   -1.6394    4.5785 C   0  0  0  0  0  0  0  0  0  0  0  0
   -2.7360   -1.3599    5.9715 C   0  0  0  0  0  0  0  0  0  0  0  0
   -2.0195   -0.7261    3.6100 Fe  0  0  0  0  0  0  0  0  0  0  0  0
   -0.1052   -1.3490    4.1334 C   0  0  0  0  0  0  0  0  0  0  0  0
    1.0159   -1.7137    4.4399 O   0  0  0  0  0  0  0  0  0  0  0  0
   -3.4753   -0.2343    2.2082 C   0  0  0  0  0  0  0  0  0  0  0  0
   -4.3278    0.0538    1.3873 O   0  0  0  0  0  0  0  0  0  0  0  0
   -0.2541    0.2676    3.1384 C   0  0  0  0  0  0  0  0  0  0  0  0
    0.7798    0.8495    2.8623 O   0  0  0  0  0  0  0  0  0  0  0  0
    0.6598    1.1073   -0.0150 H   0  0  0  0  0  0  0  0  0  0  0  0
    0.6598   -0.4188   -0.8659 H   0  0  0  0  0  0  0  0  0  0  0  0
    2.0865    0.0986    0.0001 H   0  0  0  0  0  0  0  0  0  0  0  0
    0.8665   -1.6079    1.2668 H   0  0  0  0  0  0  0  0  0  0  0  0
    2.0684    0.2361    2.6498 H   0  0  0  0  0  0  0  0  0  0  0  0
    0.4891    1.1835    4.2356 H   0  0  0  0  0  0  0  0  0  0  0  0
   -0.9196    0.5658    3.2017 H   0  0  0  0  0  0  0  0  0  0  0  0
   -1.3669    0.4094    1.2366 H   0  0  0  0  0  0  0  0  0  0  0  0
   -1.5332   -1.3864   -1.9242 H   0  0  0  0  0  0  0  0  0  0  0  0
   -2.0974   -0.6594    6.4678 H   0  0  0  0  0  0  0  0  0  0  0  0
   -3.7224   -0.9521    5.8962 H   0  0  0  0  0  0  0  0  0  0  0  0
   -2.7686   -2.2714    6.5309 H   0  0  0  0  0  0  0  0  0  0  0  0
  1  2  1  0  0  0  0
  1 21  1  0  0  0  0
  1 22  1  0  0  0  0
  1 23  1  0  0  0  0
  2  3  1  0  0  0  0
  2  5  1  0  0  0  0
  2 24  1  0  0  0  0
  3  4  2  0  0  0  0
  3 25  1  0  0  0  0
  4 26  1  0  0  0  0
  4 27  1  0  0  0  0
  5  6  1  0  0  0  0
  5  9  1  0  0  0  0
  5 28  1  0  0  0  0
  6  7  2  0  0  0  0
  7  8  2  0  0  0  0
  7 29  1  0  0  0  0
  9 10  2  0  0  0  0
  9 14  1  0  0  0  0
 10 11  1  0  0  0  0
 10 14  1  0  0  0  0
 11 12  2  0  0  0  0
 11 14  1  0  0  0  0
 12 13  1  0  0  0  0
 12 14  1  0  0  0  0
 13 30  1  0  0  0  0
 13 31  1  0  0  0  0
 13 32  1  0  0  0  0
 14 15  1  0  0  0  0
 14 17  1  0  0  0  0
 14 19  1  0  0  0  0
 15 16  3  0  0  0  0
 17 18  3  0  0  0  0
 19 20  3  0  0  0  0
M  END
$$$$
