
  --CCDC--092525    3D                              

 62 63  0  0  0  0  0  0  0  0999 V2000
    0.0053   -0.0013    0.0659 C      0
    1.9271    0.0554   -0.6301 Pt     0
    3.8419    0.1118   -1.3236 C      0
    1.6424   -1.7011   -1.6294 C      0
    2.5267   -1.0525    0.9706 N      0
    1.9281   -2.2091    1.3836 N      0
    2.5467   -2.5030    2.5150 C      0
    2.1296   -3.6864    3.3310 C      0
    1.1712   -3.3222    4.4558 C      0
    1.4843   -2.0671    5.2394 C      0
    2.8826   -2.0093    5.8841 C      0
    3.8162   -1.0046    5.2596 C      0
    4.4501   -1.3333    3.9163 C      0
    3.5098   -1.5100    2.7585 C      0
    3.4961   -0.6142    1.8028 N      0
    1.1566    1.1932   -2.6291 P      0
   -0.5341    0.6955   -3.0373 C      0
    2.2156    0.7344   -4.0210 C      0
    1.1413    3.0046   -2.6106 C      0
    2.3114    2.1348    0.5554 P      0
    0.7873    3.1041    0.6104 C      0
    2.8011    1.9991    2.2962 C      0
    3.6447    3.0663   -0.2449 C      0
   -0.5735    0.8175   -0.3576 H      0
   -0.4507   -0.9479   -0.2142 H      0
    0.0199    0.0753    1.1501 H      0
    4.0479   -0.8013   -1.8779 H      0
    4.5275    0.1733   -0.4808 H      0
    3.9798    0.9694   -1.9800 H      0
    0.6226   -2.0420   -1.4868 H      0
    2.3292   -2.4517   -1.2378 H      0
    1.8392   -1.5554   -2.6881 H      0
    3.0192   -4.1397    3.7657 H      0
    1.6393   -4.4048    2.6758 H      0
    1.1566   -4.1541    5.1583 H      0
    0.1816   -3.1990    4.0183 H      0
    0.7459   -1.9772    6.0348 H      0
    1.3935   -1.2192    4.5622 H      0
    3.3375   -2.9951    5.7994 H      0
    2.7622   -1.7542    6.9359 H      0
    4.6286   -0.8398    5.9658 H      0
    3.2538   -0.0809    5.1313 H      0
    5.0102   -2.2600    4.0324 H      0
    5.1347   -0.5242    3.6663 H      0
   -0.8646    1.1966   -3.9451 H      0
   -0.6006   -0.3782   -3.1997 H      0
   -1.2211    0.9658   -2.2381 H      0
    2.1760   -0.3359   -4.2113 H      0
    1.8960    1.2497   -4.9246 H      0
    3.2501    1.0097   -3.8267 H      0
    0.3876    3.4019   -1.9412 H      0
    0.9093    3.3778   -3.6058 H      0
    2.1024    3.4195   -2.3333 H      0
    0.0320    2.6787   -0.0446 H      0
    0.9756    4.1359    0.3197 H      0
    0.3797    3.1104    1.6203 H      0
    2.2196    1.2364    2.8092 H      0
    2.6482    2.9414    2.8140 H      0
    3.8543    1.7523    2.3964 H      0
    3.6996    2.8476   -1.3062 H      0
    4.6080    2.8028    0.1879 H      0
    3.5002    4.1365   -0.1133 H      0
  1  2  1
  2  3  1
  2  4  1
  2  5  1
  5  6  1
  6  7  2
  7  8  1
  8  9  1
  9 10  1
 10 11  1
 11 12  1
 12 13  1
 13 14  1
  7 14  1
 14 15  2
  5 15  1
  2 16  1
 16 17  1
 16 18  1
 16 19  1
  2 20  1
 20 21  1
 20 22  1
 20 23  1
  1 24  1
  1 25  1
  1 26  1
  3 27  1
  3 28  1
  3 29  1
  4 30  1
  4 31  1
  4 32  1
  8 33  1
  8 34  1
  9 35  1
  9 36  1
 10 37  1
 10 38  1
 11 39  1
 11 40  1
 12 41  1
 12 42  1
 13 43  1
 13 44  1
 17 45  1
 17 46  1
 17 47  1
 18 48  1
 18 49  1
 18 50  1
 19 51  1
 19 52  1
 19 53  1
 21 54  1
 21 55  1
 21 56  1
 22 57  1
 22 58  1
 22 59  1
 23 60  1
 23 61  1
 23 62  1
M  END
$$$$
