
 OpenBabel09252518423D

114121  0  0  0  0  0  0  0  0999 V2000
    0.9217    0.0621    0.0035 H   0  0  0  0  0  0  0  0  0  0  0  0
    1.9917    0.0621    0.0035 C   0  0  0  0  0  3  0  0  0  0  0  0
    2.5039   -1.3209   -0.4056 C   0  0  0  0  0  3  0  0  0  0  0  0
    2.1148   -2.0583    0.2650 H   0  0  0  0  0  0  0  0  0  0  0  0
    2.0737   -1.6130   -1.7369 C   0  0  0  0  0  3  0  0  0  0  0  0
    2.5571   -3.0077   -2.0996 C   0  0  0  0  0  0  0  0  0  0  0  0
    3.6251   -3.0407   -2.0437 H   0  0  0  0  0  0  0  0  0  0  0  0
    1.9674   -4.0170   -1.1280 C   0  0  0  0  0  0  0  0  0  0  0  0
    0.8994   -3.9839   -1.1840 H   0  0  0  0  0  0  0  0  0  0  0  0
    2.3077   -4.9988   -1.3834 H   0  0  0  0  0  0  0  0  0  0  0  0
    2.2800   -3.7788   -0.1328 H   0  0  0  0  0  0  0  0  0  0  0  0
    2.1130   -3.3461   -3.5134 C   0  0  0  0  0  0  0  0  0  0  0  0
    1.0450   -3.3130   -3.5693 H   0  0  0  0  0  0  0  0  0  0  0  0
    2.5281   -2.6356   -4.1973 H   0  0  0  0  0  0  0  0  0  0  0  0
    2.4533   -4.3279   -3.7687 H   0  0  0  0  0  0  0  0  0  0  0  0
    2.5611   -0.6990   -2.7209 C   0  0  0  0  0  3  0  0  0  0  0  0
    4.0311   -0.7024   -2.7076 N   0  0  0  0  0  0  0  0  0  0  0  0
    4.9794   -1.0566   -3.8362 C   0  0  0  0  0  0  0  0  0  0  0  0
    6.1665   -0.6690   -3.5803 C   0  0  0  0  0  0  0  0  0  0  0  0
    7.3440   -0.8816   -4.5178 C   0  0  0  0  0  3  0  0  0  0  0  0
    7.9360    0.4726   -4.9151 C   0  0  0  0  0  3  0  0  0  0  0  0
    7.1748    1.0775   -5.3618 H   0  0  0  0  0  0  0  0  0  0  0  0
    8.4450    1.1291   -3.7521 C   0  0  0  0  0  3  0  0  0  0  0  0
    8.8249    2.0855   -4.0453 H   0  0  0  0  0  0  0  0  0  0  0  0
    9.4903    0.4147   -3.0900 C   0  0  0  0  0  3  0  0  0  0  0  0
   10.3045    0.2643   -3.7677 H   0  0  0  0  0  0  0  0  0  0  0  0
    8.9611   -0.9419   -2.6188 C   0  0  0  0  0  3  0  0  0  0  0  0
   10.0868   -1.7285   -1.9671 C   0  0  0  0  0  3  0  0  0  0  0  0
   10.4640   -1.1825   -1.1278 H   0  0  0  0  0  0  0  0  0  0  0  0
    9.5593   -3.0753   -1.4999 C   0  0  0  0  0  3  0  0  0  0  0  0
    9.1820   -3.6212   -2.3392 H   0  0  0  0  0  0  0  0  0  0  0  0
   10.6849   -3.8619   -0.8482 C   0  0  0  0  0  3  0  0  0  0  0  0
   10.3136   -4.8100   -0.5193 H   0  0  0  0  0  0  0  0  0  0  0  0
    9.5585   -1.9932   -4.7995 C   0  0  0  0  0  3  0  0  0  0  0  0
    8.4246   -1.7185   -3.8253 C   0  0  0  0  0  3  0  0  0  0  0  0
    6.2716    0.0066   -2.2779 N   0  0  0  0  0  0  0  0  0  0  0  0
    7.3785    0.8386   -1.7845 C   0  0  0  0  0  3  0  0  0  0  0  0
    6.4974    2.0269   -1.3923 C   0  0  0  0  0  3  0  0  0  0  0  0
    5.9122    2.6591   -2.6446 C   0  0  0  0  0  0  0  0  0  0  0  0
    5.3229    1.9352   -3.1676 H   0  0  0  0  0  0  0  0  0  0  0  0
    5.0367    3.8390   -2.2548 C   0  0  0  0  0  0  0  0  0  0  0  0
    5.6260    4.5629   -1.7318 H   0  0  0  0  0  0  0  0  0  0  0  0
    4.6248    4.2840   -3.1364 H   0  0  0  0  0  0  0  0  0  0  0  0
    4.2431    3.5005   -1.6219 H   0  0  0  0  0  0  0  0  0  0  0  0
    7.0395    3.1399   -3.5437 C   0  0  0  0  0  0  0  0  0  0  0  0
    7.6288    3.8639   -3.0207 H   0  0  0  0  0  0  0  0  0  0  0  0
    7.6558    2.3094   -3.8180 H   0  0  0  0  0  0  0  0  0  0  0  0
    6.6276    3.5849   -4.4252 H   0  0  0  0  0  0  0  0  0  0  0  0
    5.4375    1.5748   -0.5468 C   0  0  0  0  0  3  0  0  0  0  0  0
    4.8158    2.4128   -0.3100 H   0  0  0  0  0  0  0  0  0  0  0  0
    5.8794    0.9839    0.6766 C   0  0  0  0  0  3  0  0  0  0  0  0
    6.4608    1.6942    1.2264 H   0  0  0  0  0  0  0  0  0  0  0  0
    6.7356   -0.2467    0.3681 C   0  0  0  0  0  3  0  0  0  0  0  0
    7.1022   -0.6660    1.2816 H   0  0  0  0  0  0  0  0  0  0  0  0
    7.9160    0.1710   -0.5145 C   0  0  0  0  0  3  0  0  0  0  0  0
    8.7964    1.1515    0.2430 C   0  0  0  0  0  0  0  0  0  0  0  0
    8.2239    2.0169    0.5041 H   0  0  0  0  0  0  0  0  0  0  0  0
    9.3201    0.4900    1.5074 C   0  0  0  0  0  0  0  0  0  0  0  0
    9.8927   -0.3754    1.2463 H   0  0  0  0  0  0  0  0  0  0  0  0
    9.9399    1.1803    2.0406 H   0  0  0  0  0  0  0  0  0  0  0  0
    8.4963    0.1995    2.1253 H   0  0  0  0  0  0  0  0  0  0  0  0
    9.9667    1.5642   -0.6349 C   0  0  0  0  0  0  0  0  0  0  0  0
   10.5393    0.6988   -0.8959 H   0  0  0  0  0  0  0  0  0  0  0  0
    9.5981    2.0298   -1.5249 H   0  0  0  0  0  0  0  0  0  0  0  0
   10.5865    2.2544   -0.1017 H   0  0  0  0  0  0  0  0  0  0  0  0
    4.9711   -0.3492   -1.5496 Eu  0  0  0  0  0  0  0  0  0  0  0  0
    4.5931    2.1788   -0.7115 N   0  0  0  0  0  0  0  0  0  0  0  0
    3.7581    2.9669   -1.3538 C   0  0  0  0  0  0  0  0  0  0  0  0
    2.7300    3.9373   -2.1448 S   0  0  0  0  0  0  0  0  0  0  0  0
    4.4398    0.8303   -0.7246 O   0  0  0  0  0  0  0  0  0  0  0  0
    4.7689    2.0720   -1.3298 C   0  0  0  0  0  0  0  0  0  0  0  0
    5.8325    2.1610   -1.4056 H   0  0  0  0  0  0  0  0  0  0  0  0
    4.3365    2.1179   -2.3075 H   0  0  0  0  0  0  0  0  0  0  0  0
    4.3856    2.8726   -0.7323 H   0  0  0  0  0  0  0  0  0  0  0  0
    5.1847    0.6467    0.6257 C   0  0  0  0  0  0  0  0  0  0  0  0
    4.6843    1.1257    1.4412 H   0  0  0  0  0  0  0  0  0  0  0  0
    6.1618    1.0806    0.5833 H   0  0  0  0  0  0  0  0  0  0  0  0
    5.2710   -0.8845    0.7975 C   0  0  0  0  0  0  0  0  0  0  0  0
    6.1946   -1.1668    1.2581 H   0  0  0  0  0  0  0  0  0  0  0  0
    4.4746   -1.2301    1.4230 H   0  0  0  0  0  0  0  0  0  0  0  0
    5.1471   -1.4914   -0.5884 O   0  0  0  0  0  0  0  0  0  0  0  0
    4.0216   -2.3553   -0.6447 C   0  0  0  0  0  0  0  0  0  0  0  0
    3.1394   -1.8092   -0.3830 H   0  0  0  0  0  0  0  0  0  0  0  0
    3.9195   -2.7438   -1.6364 H   0  0  0  0  0  0  0  0  0  0  0  0
    4.1577   -3.1637    0.0428 H   0  0  0  0  0  0  0  0  0  0  0  0
    6.7229   -1.0267    0.3055 O   0  0  0  0  0  0  0  0  0  0  0  0
    7.8589   -1.6168   -0.3091 C   0  0  0  0  0  0  0  0  0  0  0  0
    8.3054   -0.9148   -0.9819 H   0  0  0  0  0  0  0  0  0  0  0  0
    8.5689   -1.8914    0.4428 H   0  0  0  0  0  0  0  0  0  0  0  0
    7.5584   -2.4889   -0.8513 H   0  0  0  0  0  0  0  0  0  0  0  0
    7.1218    0.1306    1.0251 C   0  0  0  0  0  0  0  0  0  0  0  0
    7.5683    0.8327    0.3523 H   0  0  0  0  0  0  0  0  0  0  0  0
    6.2658    0.5753    1.4883 H   0  0  0  0  0  0  0  0  0  0  0  0
    8.1304   -0.2594    2.0933 C   0  0  0  0  0  0  0  0  0  0  0  0
    8.9864   -0.7041    1.6301 H   0  0  0  0  0  0  0  0  0  0  0  0
    8.4310    0.6126    2.6355 H   0  0  0  0  0  0  0  0  0  0  0  0
    3.0299   -0.4752   -3.3344 O   0  0  0  0  0  0  0  0  0  0  0  0
    3.0238   -1.7610   -3.9371 C   0  0  0  0  0  0  0  0  0  0  0  0
    3.9633   -1.9333   -4.4192 H   0  0  0  0  0  0  0  0  0  0  0  0
    2.8664   -2.5063   -3.1857 H   0  0  0  0  0  0  0  0  0  0  0  0
    2.2370   -1.8120   -4.6604 H   0  0  0  0  0  0  0  0  0  0  0  0
    2.0512    0.7091   -2.4054 C   0  0  0  0  0  3  0  0  0  0  0  0
    2.6170    1.6934   -3.4161 C   0  0  0  0  0  0  0  0  0  0  0  0
    3.6857    1.6821   -3.3652 H   0  0  0  0  0  0  0  0  0  0  0  0
    2.1722    1.2959   -4.8142 C   0  0  0  0  0  0  0  0  0  0  0  0
    1.1034    1.3072   -4.8651 H   0  0  0  0  0  0  0  0  0  0  0  0
    2.5705    1.9888   -5.5256 H   0  0  0  0  0  0  0  0  0  0  0  0
    2.5295    0.3120   -5.0359 H   0  0  0  0  0  0  0  0  0  0  0  0
    2.1094    3.0911   -3.1011 C   0  0  0  0  0  0  0  0  0  0  0  0
    1.0407    3.1023   -3.1520 H   0  0  0  0  0  0  0  0  0  0  0  0
    2.4226    3.3709   -2.1169 H   0  0  0  0  0  0  0  0  0  0  0  0
    2.5077    3.7839   -3.8126 H   0  0  0  0  0  0  0  0  0  0  0  0
    2.5045    1.1037   -0.9963 C   0  0  0  0  0  3  0  0  0  0  0  0
    3.5733    1.1395   -0.9604 H   0  0  0  0  0  0  0  0  0  0  0  0
  1  2  1  0  0  0  0
  2  3  1  0  0  0  0
  2113  1  0  0  0  0
  3  4  1  0  0  0  0
  3  5  1  0  0  0  0
  5  6  1  0  0  0  0
  5 16  1  0  0  0  0
  6  7  1  0  0  0  0
  6  8  1  0  0  0  0
  6 12  1  0  0  0  0
  8  9  1  0  0  0  0
  8 10  1  0  0  0  0
  8 11  1  0  0  0  0
 12 13  1  0  0  0  0
 12 14  1  0  0  0  0
 12 15  1  0  0  0  0
 16 17  1  0  0  0  0
 16102  1  0  0  0  0
 17 18  1  0  0  0  0
 17 66  1  0  0  0  0
 18 19  2  0  0  0  0
 18 34  1  0  0  0  0
 19 20  1  0  0  0  0
 19 36  1  0  0  0  0
 20 21  1  0  0  0  0
 20 35  1  0  0  0  0
 21 22  1  0  0  0  0
 21 23  1  0  0  0  0
 23 24  1  0  0  0  0
 23 25  1  0  0  0  0
 25 26  1  0  0  0  0
 25 27  1  0  0  0  0
 27 28  1  0  0  0  0
 27 35  1  0  0  0  0
 28 29  1  0  0  0  0
 28 30  1  0  0  0  0
 30 31  1  0  0  0  0
 30 32  1  0  0  0  0
 32 33  1  0  0  0  0
 32 34  1  0  0  0  0
 34 35  1  0  0  0  0
 36 37  1  0  0  0  0
 36 66  1  0  0  0  0
 37 38  1  0  0  0  0
 37 55  1  0  0  0  0
 38 39  1  0  0  0  0
 38 49  1  0  0  0  0
 39 40  1  0  0  0  0
 39 41  1  0  0  0  0
 39 45  1  0  0  0  0
 41 42  1  0  0  0  0
 41 43  1  0  0  0  0
 41 44  1  0  0  0  0
 45 46  1  0  0  0  0
 45 47  1  0  0  0  0
 45 48  1  0  0  0  0
 49 50  1  0  0  0  0
 49 51  1  0  0  0  0
 51 52  1  0  0  0  0
 51 53  1  0  0  0  0
 53 54  1  0  0  0  0
 53 55  1  0  0  0  0
 55 56  1  0  0  0  0
 56 57  1  0  0  0  0
 56 58  1  0  0  0  0
 56 62  1  0  0  0  0
 58 59  1  0  0  0  0
 58 60  1  0  0  0  0
 58 61  1  0  0  0  0
 62 63  1  0  0  0  0
 62 64  1  0  0  0  0
 62 65  1  0  0  0  0
 66 67  1  0  0  0  0
 66 70  1  0  0  0  0
 66 81  1  0  0  0  0
 66 86  1  0  0  0  0
 66 97  1  0  0  0  0
 67 68  2  0  0  0  0
 68 69  2  0  0  0  0
 70 71  1  0  0  0  0
 70 75  1  0  0  0  0
 71 72  1  0  0  0  0
 71 73  1  0  0  0  0
 71 74  1  0  0  0  0
 75 76  1  0  0  0  0
 75 77  1  0  0  0  0
 75 78  1  0  0  0  0
 78 79  1  0  0  0  0
 78 80  1  0  0  0  0
 78 81  1  0  0  0  0
 81 82  1  0  0  0  0
 82 83  1  0  0  0  0
 82 84  1  0  0  0  0
 82 85  1  0  0  0  0
 86 87  1  0  0  0  0
 86 91  1  0  0  0  0
 87 88  1  0  0  0  0
 87 89  1  0  0  0  0
 87 90  1  0  0  0  0
 91 92  1  0  0  0  0
 91 93  1  0  0  0  0
 91 94  1  0  0  0  0
 94 95  1  0  0  0  0
 94 96  1  0  0  0  0
 94 97  1  0  0  0  0
 97 98  1  0  0  0  0
 98 99  1  0  0  0  0
 98100  1  0  0  0  0
 98101  1  0  0  0  0
102103  1  0  0  0  0
102113  1  0  0  0  0
103104  1  0  0  0  0
103105  1  0  0  0  0
103109  1  0  0  0  0
105106  1  0  0  0  0
105107  1  0  0  0  0
105108  1  0  0  0  0
109110  1  0  0  0  0
109111  1  0  0  0  0
109112  1  0  0  0  0
113114  1  0  0  0  0
M  END
$$$$
