
     RDKit          3D

  0  0  0  0  0  0  0  0  0  0999 V3000
M  V30 BEGIN CTAB
M  V30 COUNTS 114 121 0 0 0
M  V30 BEGIN ATOM
M  V30 1 C 5.225605 0.855531 1.142639 0
M  V30 2 C 5.040092 0.434196 -0.181366 0
M  V30 3 C 3.780146 0.246960 -0.719719 0
M  V30 4 C 4.005862 0.269596 -2.160786 0
M  V30 5 C 5.124032 -0.750845 -2.444037 0
M  V30 6 C 4.797200 1.592590 -2.424462 0
M  V30 7 C 2.556705 0.430921 -0.023107 0
M  V30 8 N 1.139013 0.076096 -0.387085 0
M  V30 9 C 0.458075 1.171612 -0.932703 0
M  V30 10 C -0.791367 1.212938 -0.507573 0
M  V30 11 C -1.404401 2.431624 -1.124895 0
M  V30 12 C -2.577399 3.119843 -1.130727 0
M  V30 13 C -2.829443 4.262777 -1.815781 0
M  V30 14 C -1.900399 4.919859 -2.629764 0
M  V30 15 C -0.680817 4.246829 -2.648942 0
M  V30 16 C 0.401642 4.758665 -3.393857 0
M  V30 17 C 1.562816 4.045109 -3.335317 0
M  V30 18 C 1.606192 2.921708 -2.578078 0
M  V30 19 C 0.657116 2.330546 -1.824257 0
M  V30 20 C -0.510458 3.099220 -1.932937 0
M  V30 21 N -1.173911 0.016858 0.256067 0
M  V30 22 C -2.402726 0.336821 1.026709 0
M  V30 23 C -2.507527 0.737887 2.338894 0
M  V30 24 C -1.485763 0.632257 3.380994 0
M  V30 25 C -1.527107 1.844890 4.325561 0
M  V30 26 C -1.978495 -0.482194 4.360482 0
M  V30 27 C -3.611170 1.151537 2.974590 0
M  V30 28 C -4.754858 1.171885 2.236377 0
M  V30 29 C -4.732383 0.789380 0.917896 0
M  V30 30 C -3.584313 0.358699 0.245058 0
M  V30 31 C -4.155297 -0.026216 -1.035188 0
M  V30 32 C -5.187050 1.047567 -1.579768 0
M  V30 33 C -5.226146 -1.140906 -0.682956 0
M  V30 34 Eu 0.044996 -1.630661 -0.070528 0 VAL=7
M  V30 35 N -0.035671 -1.712120 1.986009 0
M  V30 36 C 0.399183 -2.084640 2.991700 0
M  V30 37 S 0.488150 -2.880530 4.397445 0
M  V30 38 O 1.710452 -2.507865 0.203741 0
M  V30 39 C 2.223907 -3.229800 1.229597 0
M  V30 40 C 2.658383 -2.920455 -0.769156 0
M  V30 41 C 2.209748 -2.179416 -1.943360 0
M  V30 42 O 0.824072 -2.415954 -1.682400 0
M  V30 43 C 0.727862 -3.699291 -2.183152 0
M  V30 44 O -1.602642 -1.911656 -1.335220 0
M  V30 45 C -1.450035 -1.511224 -2.602973 0
M  V30 46 C -2.387897 -3.048615 -1.301304 0
M  V30 47 C -2.495093 -2.995502 0.209046 0
M  V30 48 O -1.087616 -3.064467 0.381852 0
M  V30 49 C -0.717793 -4.409573 0.352343 0
M  V30 50 C 2.967054 0.864104 1.261350 0
M  V30 51 C 1.832930 1.303568 2.185255 0
M  V30 52 C 2.077109 2.803910 2.500742 0
M  V30 53 C 2.197696 0.692130 3.572556 0
M  V30 54 C 4.133427 1.082739 1.881714 0
M  V30 55 H 6.200883 0.973866 1.559635 0
M  V30 56 H 5.965351 0.282022 -0.708276 0
M  V30 57 H 3.276298 0.151502 -2.901736 0
M  V30 58 H 6.036323 -0.272787 -2.746046 0
M  V30 59 H 5.297041 -1.421977 -1.562060 0
M  V30 60 H 4.826582 -1.450163 -3.280526 0
M  V30 61 H 4.610002 2.233320 -1.559336 0
M  V30 62 H 5.837298 1.325673 -2.417983 0
M  V30 63 H 4.476386 2.065160 -3.340649 0
M  V30 64 H -3.247729 2.674979 -0.455710 0
M  V30 65 H -3.815145 4.709290 -1.719476 0
M  V30 66 H -2.042876 5.816915 -3.185490 0
M  V30 67 H 0.229050 5.683304 -3.964296 0
M  V30 68 H 2.406365 4.390060 -3.886158 0
M  V30 69 H 2.466201 2.352513 -2.511147 0
M  V30 70 H -0.553430 0.450607 2.995409 0
M  V30 71 H -2.413788 1.895586 4.937790 0
M  V30 72 H -1.406826 2.783640 3.737003 0
M  V30 73 H -0.620786 1.792297 5.012377 0
M  V30 74 H -2.225511 -1.385216 3.784477 0
M  V30 75 H -2.904573 -0.097746 4.821786 0
M  V30 76 H -1.201709 -0.636702 5.147504 0
M  V30 77 H -3.806566 1.463807 3.973884 0
M  V30 78 H -5.691169 1.500753 2.723396 0
M  V30 79 H -5.766756 0.869016 0.532296 0
M  V30 80 H -3.613962 -0.389829 -1.818038 0
M  V30 81 H -6.061146 0.532279 -1.942314 0
M  V30 82 H -5.324860 1.876137 -0.933028 0
M  V30 83 H -4.669436 1.443236 -2.508284 0
M  V30 84 H -5.245644 -1.866611 -1.480748 0
M  V30 85 H -6.249468 -0.634689 -0.653440 0
M  V30 86 H -4.998758 -1.538840 0.298674 0
M  V30 87 H 3.220731 -2.833163 1.490235 0
M  V30 88 H 2.549477 -4.237389 0.726856 0
M  V30 89 H 1.696407 -3.580481 2.054058 0
M  V30 90 H 2.631580 -3.964570 -0.894072 0
M  V30 91 H 3.681591 -2.584633 -0.381850 0
M  V30 92 H 2.490826 -2.506756 -2.901536 0
M  V30 93 H 2.224249 -1.114573 -1.860945 0
M  V30 94 H 1.269045 -4.473631 -1.661902 0
M  V30 95 H 1.278451 -3.553731 -3.216744 0
M  V30 96 H -0.193916 -4.102455 -2.534054 0
M  V30 97 H -2.377069 -1.381983 -3.137755 0
M  V30 98 H -0.719277 -2.050022 -3.168829 0
M  V30 99 H -1.014533 -0.439241 -2.554760 0
M  V30 100 H -2.043659 -3.965876 -1.722572 0
M  V30 101 H -3.328711 -2.715650 -1.718256 0
M  V30 102 H -2.816091 -3.922293 0.648624 0
M  V30 103 H -2.880280 -2.096496 0.625347 0
M  V30 104 H -1.267693 -4.895344 1.235398 0
M  V30 105 H -1.027098 -4.849897 -0.569699 0
M  V30 106 H 0.331214 -4.616558 0.485676 0
M  V30 107 H 0.916465 0.987099 1.905012 0
M  V30 108 H 2.633602 3.183200 1.588578 0
M  V30 109 H 1.134656 3.359486 2.616178 0
M  V30 110 H 2.715338 2.989721 3.351812 0
M  V30 111 H 2.628618 -0.305579 3.468902 0
M  V30 112 H 2.862425 1.395430 4.148927 0
M  V30 113 H 1.284284 0.636447 4.159233 0
M  V30 114 H 4.300036 1.408621 2.891433 0
M  V30 END ATOM
M  V30 BEGIN BOND
M  V30 1 2 1 2
M  V30 2 1 2 3
M  V30 3 1 3 4
M  V30 4 1 4 5
M  V30 5 1 4 6
M  V30 6 2 3 7
M  V30 7 1 7 8
M  V30 8 1 8 9
M  V30 9 2 9 10
M  V30 10 1 10 11
M  V30 11 2 11 12
M  V30 12 1 12 13
M  V30 13 2 13 14
M  V30 14 1 14 15
M  V30 15 2 15 16
M  V30 16 1 16 17
M  V30 17 2 17 18
M  V30 18 1 18 19
M  V30 19 2 19 20
M  V30 20 1 10 21
M  V30 21 1 21 22
M  V30 22 2 22 23
M  V30 23 1 23 24
M  V30 24 1 24 25
M  V30 25 1 24 26
M  V30 26 1 23 27
M  V30 27 2 27 28
M  V30 28 1 28 29
M  V30 29 2 29 30
M  V30 30 1 30 31
M  V30 31 1 31 32
M  V30 32 1 31 33
M  V30 33 1 21 34
M  V30 34 1 34 35
M  V30 35 2 35 36
M  V30 36 2 36 37
M  V30 37 9 38 34
M  V30 38 1 38 39
M  V30 39 1 38 40
M  V30 40 1 40 41
M  V30 41 1 41 42
M  V30 42 1 42 43
M  V30 43 9 44 34
M  V30 44 1 44 45
M  V30 45 1 44 46
M  V30 46 1 46 47
M  V30 47 1 47 48
M  V30 48 1 48 49
M  V30 49 1 7 50
M  V30 50 1 50 51
M  V30 51 1 51 52
M  V30 52 1 51 53
M  V30 53 2 50 54
M  V30 54 1 54 1
M  V30 55 1 34 8
M  V30 56 1 19 9
M  V30 57 1 30 22
M  V30 58 9 42 34
M  V30 59 1 20 11
M  V30 60 9 48 34
M  V30 61 1 20 15
M  V30 62 1 1 55
M  V30 63 1 2 56
M  V30 64 1 4 57
M  V30 65 1 5 58
M  V30 66 1 5 59
M  V30 67 1 5 60
M  V30 68 1 6 61
M  V30 69 1 6 62
M  V30 70 1 6 63
M  V30 71 1 12 64
M  V30 72 1 13 65
M  V30 73 1 14 66
M  V30 74 1 16 67
M  V30 75 1 17 68
M  V30 76 1 18 69
M  V30 77 1 24 70
M  V30 78 1 25 71
M  V30 79 1 25 72
M  V30 80 1 25 73
M  V30 81 1 26 74
M  V30 82 1 26 75
M  V30 83 1 26 76
M  V30 84 1 27 77
M  V30 85 1 28 78
M  V30 86 1 29 79
M  V30 87 1 31 80
M  V30 88 1 32 81
M  V30 89 1 32 82
M  V30 90 1 32 83
M  V30 91 1 33 84
M  V30 92 1 33 85
M  V30 93 1 33 86
M  V30 94 1 39 87
M  V30 95 1 39 88
M  V30 96 1 39 89
M  V30 97 1 40 90
M  V30 98 1 40 91
M  V30 99 1 41 92
M  V30 100 1 41 93
M  V30 101 1 43 94
M  V30 102 1 43 95
M  V30 103 1 43 96
M  V30 104 1 45 97
M  V30 105 1 45 98
M  V30 106 1 45 99
M  V30 107 1 46 100
M  V30 108 1 46 101
M  V30 109 1 47 102
M  V30 110 1 47 103
M  V30 111 1 49 104
M  V30 112 1 49 105
M  V30 113 1 49 106
M  V30 114 1 51 107
M  V30 115 1 52 108
M  V30 116 1 52 109
M  V30 117 1 52 110
M  V30 118 1 53 111
M  V30 119 1 53 112
M  V30 120 1 53 113
M  V30 121 1 54 114
M  V30 END BOND
M  V30 END CTAB
M  END
