
  --CCDC--092525    3D                              

114121  0  0  0  0  0  0  0  0999 V2000
    0.4931    0.0084    0.1382 H      0
    0.9802    0.9773    0.1750 C      0
    1.1458    1.7119   -0.9832 C      0
    0.7917    1.3083   -1.9260 H      0
    1.7551    2.9633   -0.9640 C      0
    1.8542    3.7297   -2.2781 C      0
    2.2935    4.7217   -2.0958 H      0
    2.7210    2.9960   -3.3012 C      0
    2.5904    3.4257   -4.2919 H      0
    2.4524    1.9431   -3.3513 H      0
    3.7746    3.0649   -3.0475 H      0
    0.4713    3.9372   -2.8925 C      0
    0.0001    2.9823   -3.1155 H      0
    0.5463    4.5013   -3.8201 H      0
   -0.1765    4.4872   -2.2133 H      0
    2.2262    3.4552    0.2731 C      0
    2.9113    4.7021    0.2302 N      0
    4.1990    4.7147   -0.3798 C      0
    4.8254    5.9234   -0.6330 C      0
    6.1019    5.6679   -1.3191 C      0
    7.1488    6.3785   -1.8638 C      0
    7.1459    7.4623   -1.8239 H      0
    8.2049    5.7126   -2.4779 C      0
    9.0124    6.2951   -2.9088 H      0
    8.2640    4.3492   -2.5604 C      0
    9.1070    3.8679   -3.0463 H      0
    7.2235    3.5656   -2.0119 C      0
    7.1541    2.1528   -2.0055 C      0
    7.9520    1.5678   -2.4516 H      0
    6.0832    1.5254   -1.4324 C      0
    6.0559    0.4405   -1.4235 H      0
    5.0295    2.2304   -0.8617 C      0
    4.1966    1.6923   -0.4216 H      0
    5.0402    3.6081   -0.8537 C      0
    6.1546    4.2613   -1.4132 C      0
    4.1707    7.1338   -0.2456 N      0
    4.7488    8.4185   -0.4680 C      0
    4.2783    9.2730   -1.4961 C      0
    3.4274    8.8778   -2.7044 C      0
    3.1419    7.8190   -2.6075 H      0
    4.0804    9.0866   -4.0711 C      0
    4.9559    8.4569   -4.2001 H      0
    4.3841   10.1246   -4.1963 H      0
    3.3820    8.8426   -4.8679 H      0
    2.1521    9.7225   -2.7463 C      0
    1.5711    9.4907   -3.6362 H      0
    2.3977   10.7823   -2.7763 H      0
    1.5168    9.5471   -1.8829 H      0
    4.6791   10.6088   -1.4329 C      0
    4.2567   11.3269   -2.1255 H      0
    5.6083   11.0539   -0.5129 C      0
    5.8957   12.1001   -0.4898 H      0
    6.1907   10.1559    0.3579 C      0
    6.9633   10.4976    1.0384 H      0
    5.8034    8.8202    0.3826 C      0
    6.5753    7.8937    1.3124 C      0
    6.1676    6.8755    1.2539 H      0
    6.5157    8.3524    2.7653 C      0
    5.4942    8.5300    3.0704 H      0
    7.0715    9.2765    2.9041 H      0
    6.9384    7.5958    3.4227 H      0
    8.0469    7.8524    0.9044 C      0
    8.1678    8.0952   -0.1496 H      0
    8.4672    6.8641    1.0784 H      0
    8.6210    8.5707    1.4861 H      0
    1.8144    7.0098    0.9909 Eu     0
    0.7119    7.3285   -1.4092 N      0
    0.1704    7.4939   -2.6170 C      0
   -0.5238    7.7059   -4.1654 S      0
    0.3179    5.1299    2.1165 O      0
   -0.6176    4.4025    1.3500 C      0
   -1.3958    5.0416    0.9412 H      0
   -1.0967    3.6425    1.9635 H      0
   -0.1584    3.9025    0.5051 H      0
   -0.2945    5.6871    3.2549 C      0
   -0.8098    4.9197    3.8453 H      0
    0.4698    6.1306    3.9047 H      0
   -1.2544    6.7452    2.7892 C      0
   -2.1195    6.2835    2.2996 H      0
   -1.6477    7.2966    3.6519 H      0
   -0.6087    7.6290    1.8918 O      0
   -0.8942    8.9747    2.1708 C      0
   -0.6720    9.6022    1.3111 H      0
   -0.2973    9.3273    3.0091 H      0
   -1.9432    9.1040    2.4252 H      0
    3.0851    7.7064    3.2065 O      0
    3.2633    6.8220    4.2804 C      0
    3.5861    5.8455    3.9265 H      0
    2.3395    6.6964    4.8405 H      0
    4.0229    7.2011    4.9618 H      0
    2.8440    9.0526    3.5792 C      0
    1.8357    9.1488    4.0008 H      0
    3.5413    9.3502    4.3722 H      0
    2.9966    9.9861    2.3983 C      0
    2.7816   11.0163    2.7081 H      0
    4.0317    9.9781    2.0346 H      0
    2.1209    9.6149    1.3551 O      0
    1.7876   10.6011    0.4131 C      0
    0.9191   10.3082   -0.1727 H      0
    2.6157   10.7777   -0.2699 H      0
    1.5575   11.5415    0.9098 H      0
    2.0617    2.7237    1.4671 C      0
    2.5201    3.2103    2.8321 C      0
    2.7457    4.2858    2.7666 H      0
    3.7732    2.4661    3.2911 C      0
    4.5956    2.6219    2.5966 H      0
    4.0868    2.8129    4.2735 H      0
    3.5826    1.3967    3.3570 H      0
    1.4248    2.9969    3.8774 C      0
    1.6443    2.1305    4.4970 H      0
    0.4600    2.8311    3.4052 H      0
    1.3401    3.8626    4.5302 H      0
    1.4355    1.4797    1.3802 C      0
    1.3039    0.8839    2.2766 H      0
  1  2  1
  2  3  4
  3  4  1
  3  5  4
  5  6  1
  6  7  1
  6  8  1
  8  9  1
  8 10  1
  8 11  1
  6 12  1
 12 13  1
 12 14  1
 12 15  1
  5 16  4
 16 17  1
 17 18  1
 18 19  2
 19 20  1
 20 21  4
 21 22  1
 21 23  4
 23 24  1
 23 25  4
 25 26  1
 25 27  4
 27 28  4
 28 29  1
 28 30  4
 30 31  1
 30 32  4
 32 33  1
 32 34  4
 18 34  1
 34 35  4
 20 35  4
 27 35  4
 19 36  1
 36 37  1
 37 38  4
 38 39  1
 39 40  1
 39 41  1
 41 42  1
 41 43  1
 41 44  1
 39 45  1
 45 46  1
 45 47  1
 45 48  1
 38 49  4
 49 50  1
 49 51  4
 51 52  1
 51 53  4
 53 54  1
 53 55  4
 37 55  4
 55 56  1
 56 57  1
 56 58  1
 58 59  1
 58 60  1
 58 61  1
 56 62  1
 62 63  1
 62 64  1
 62 65  1
 36 66  1
 17 66  1
 66 67  1
 67 68  4
 68 69  4
 66 70  1
 70 71  1
 71 72  1
 71 73  1
 71 74  1
 70 75  1
 75 76  1
 75 77  1
 75 78  1
 78 79  1
 78 80  1
 78 81  1
 66 81  1
 81 82  1
 82 83  1
 82 84  1
 82 85  1
 66 86  1
 86 87  1
 87 88  1
 87 89  1
 87 90  1
 86 91  1
 91 92  1
 91 93  1
 91 94  1
 94 95  1
 94 96  1
 94 97  1
 66 97  1
 97 98  1
 98 99  1
 98100  1
 98101  1
 16102  4
102103  1
103104  1
103105  1
105106  1
105107  1
105108  1
103109  1
109110  1
109111  1
109112  1
102113  4
  2113  4
113114  1
M  END
$$$$
