
  --CCDC--092525    3D                              

 73 79  0  0  0  0  0  0  0  0999 V2000
   -1.4783    0.7198   -0.2715 H      0
   -1.1090    0.5135   -1.3935 C      0
   -1.5468   -0.7921   -1.5603 C      0
   -1.7382   -1.2997   -2.8266 C      0
   -1.4113   -0.5270   -3.9170 C      0
   -0.7725    0.6908   -3.7519 C      0
   -0.4833    1.1992   -2.4838 C      0
    0.4970    2.2531   -2.4053 N      0
    0.9002    2.5201   -1.1758 C      0
    1.9091    3.4669   -0.5322 C      0
    2.7911    4.2864   -1.2379 C      0
    3.6291    5.1640   -0.5711 C      0
    3.6015    5.2469    0.8030 C      0
    2.7472    4.4393    1.5332 C      0
    1.9014    3.5248    0.8999 C      0
    0.7799    2.3895    1.7899 P      0
    1.6570    1.3370    2.9768 C      0
    1.0404    0.2156    3.5174 C      0
    1.6721   -0.5529    4.4806 C      0
    2.9174   -0.1946    4.9454 C      0
    3.5245    0.9405    4.4570 C      0
    2.8975    1.7102    3.4909 C      0
   -0.2662    3.2097    3.0210 C      0
   -1.1527    2.4444    3.7757 C      0
   -1.9111    3.0278    4.7769 C      0
   -1.7841    4.3719    5.0507 C      0
   -0.8907    5.1353    4.3317 C      0
   -0.1272    4.5587    3.3305 C      0
   -0.2262    1.4919   -0.0889 Co     0
    1.3340   -0.2187    0.1634 P      0
    1.7446   -0.7563   -1.5164 C      0
    0.6587   -1.7176    0.9240 C      0
    3.0203    0.1579    0.7065 C      0
   -1.6122    3.3458    0.1262 P      0
   -2.5411    3.3442   -1.4260 C      0
   -2.9511    3.2921    1.3438 C      0
   -0.7818    4.9540    0.0882 C      0
   -1.7833   -1.3990   -0.6925 H      0
   -2.1516   -2.2935   -2.9626 H      0
   -1.6234   -0.8913   -4.9167 H      0
   -0.4503    1.2419   -4.6292 H      0
    2.8153    4.2405   -2.3217 H      0
    4.3088    5.7940   -1.1354 H      0
    4.2541    5.9461    1.3155 H      0
    2.7393    4.5121    2.6157 H      0
    0.0459   -0.0589    3.1823 H      0
    1.1820   -1.4375    4.8737 H      0
    3.4145   -0.7995    5.6965 H      0
    4.4991    1.2348    4.8321 H      0
    3.3901    2.6056    3.1339 H      0
   -1.2565    1.3837    3.5738 H      0
   -2.6077    2.4236    5.3487 H      0
   -2.3829    4.8271    5.8326 H      0
   -0.7828    6.1921    4.5527 H      0
    0.5856    5.1653    2.7818 H      0
    0.9574   -1.3585   -1.9588 H      0
    2.6530   -1.3550   -1.5103 H      0
    1.9151    0.1028   -2.1619 H      0
    0.0269   -2.2464    0.2135 H      0
    0.0570   -1.5110    1.8016 H      0
    1.4619   -2.3900    1.2182 H      0
    3.1587    1.2255    0.8637 H      0
    3.7273   -0.1605   -0.0567 H      0
    3.2894   -0.3819    1.6088 H      0
   -3.2289    4.1863   -1.4647 H      0
   -3.1200    2.4287   -1.5280 H      0
   -1.8684    3.4165   -2.2780 H      0
   -3.1402    2.2737    1.6767 H      0
   -3.8670    3.6693    0.8938 H      0
   -2.7569    3.9200    2.2046 H      0
   -1.5097    5.7615    0.1310 H      0
   -0.2168    5.0634   -0.8352 H      0
   -0.0881    5.0818    0.9099 H      0
  1  2  1
  2  3  4
  3  4  4
  4  5  4
  5  6  4
  6  7  4
  2  7  4
  7  8  1
  8  9  2
  9 10  1
 10 11  4
 11 12  4
 12 13  4
 13 14  4
 14 15  4
 10 15  4
 15 16  1
 16 17  1
 17 18  4
 18 19  4
 19 20  4
 20 21  4
 21 22  4
 17 22  4
 16 23  1
 23 24  4
 24 25  4
 25 26  4
 26 27  4
 27 28  4
 23 28  4
 16 29  1
  1 29  1
  2 29  1
  9 29  1
 29 30  1
 30 31  1
 30 32  1
 30 33  1
 29 34  1
 34 35  1
 34 36  1
 34 37  1
  3 38  1
  4 39  1
  5 40  1
  6 41  1
 11 42  1
 12 43  1
 13 44  1
 14 45  1
 18 46  1
 19 47  1
 20 48  1
 21 49  1
 22 50  1
 24 51  1
 25 52  1
 26 53  1
 27 54  1
 28 55  1
 31 56  1
 31 57  1
 31 58  1
 32 59  1
 32 60  1
 32 61  1
 33 62  1
 33 63  1
 33 64  1
 35 65  1
 35 66  1
 35 67  1
 36 68  1
 36 69  1
 36 70  1
 37 71  1
 37 72  1
 37 73  1
M  END
$$$$
