
  --CCDC--092525    3D                              

 57 64  0  0  0  0  0  0  0  0999 V2000
    0.0061    0.2930    0.3254 C      0
    1.3147    0.1765   -0.3022 C      0
    2.3369    0.0560   -0.7929 N      0
    4.3092   -0.1766   -1.7398 Fe     1
    4.8064    0.8710    0.1302 N      0
    5.0625    1.4171    1.0989 C      0
    5.4067    2.1372    2.3174 C      0
    3.0462   -1.0588   -3.3232 C      0
    2.4259   -2.2995   -3.0065 N      0
    3.2274   -3.5053   -2.8905 C      0
    4.3775   -3.4104   -2.0028 N      0
    5.3259   -4.4334   -1.8791 C      0
    6.3018   -3.9783   -1.0941 C      0
    5.9358   -2.6812   -0.7367 N      0
    6.8276   -1.6991   -0.1642 C      0
    7.2384   -1.0726   -1.4090 N      0
    8.2062   -1.4849   -2.3329 C      0
    8.1623   -0.6192   -3.3555 C      0
    7.1584    0.3070   -3.0547 N      0
    6.8009    1.5300   -3.7534 C      0
    5.4253    1.4618   -4.2100 N      0
    5.0086    1.4878   -5.5443 C      0
    3.6770    1.4122   -5.5312 C      0
    3.3001    1.3430   -4.1873 N      0
    1.9622    1.1428   -3.6658 C      0
    1.8477   -0.2800   -3.3748 N      0
    0.6687   -0.9918   -3.1400 C      0
    1.0316   -2.2528   -2.9051 C      0
    4.3669    1.4420   -3.2571 C      0
    6.5126    0.0604   -1.8234 C      0
    4.6292   -2.2979   -1.1417 C      0
   -0.5037    1.1991    0.0043 H      0
    0.1038    0.3268    1.4081 H      0
   -0.6203   -0.5560    0.0596 H      0
    4.5110    2.4280    2.8616 H      0
    5.9692    3.0388    2.0835 H      0
    6.0122    1.5180    2.9762 H      0
    2.5841   -4.3254   -2.5472 H      0
    3.5889   -3.7776   -3.8898 H      0
    5.3087   -5.3923   -2.3859 H      0
    7.2339   -4.4826   -0.8633 H      0
    6.3030   -1.0025    0.5001 H      0
    7.6741   -2.1703    0.3514 H      0
    8.8672   -2.3397   -2.2393 H      0
    8.7979   -0.6223   -4.2345 H      0
    6.9141    2.3833   -3.0732 H      0
    7.4714    1.6829   -4.6082 H      0
    5.6468    1.5401   -6.4202 H      0
    3.0207    1.3782   -6.3943 H      0
    1.8148    1.7337   -2.7532 H      0
    1.2132    1.4432   -4.4093 H      0
   -0.3414   -0.5962   -3.1427 H      0
    0.3706   -3.0858   -2.6899 H      0
    3.5598   -1.0974   -4.2964 H      0
    4.3206    2.4172   -2.7481 H      0
    6.7704    0.8958   -1.1543 H      0
    3.9813   -2.4470   -0.2640 H      0
  1  2  1
  2  3  3
  3  4  1
  4  5  1
  5  6  3
  6  7  1
  4  8  1
  8  9  1
  9 10  1
 10 11  1
 11 12  1
 12 13  2
 13 14  1
 14 15  1
 15 16  1
 16 17  1
 17 18  2
 18 19  1
 19 20  1
 20 21  1
 21 22  1
 22 23  2
 23 24  1
 24 25  1
 25 26  1
  8 26  1
 26 27  1
 27 28  2
  9 28  1
 24 29  1
  4 29  1
 21 29  1
 19 30  1
  4 30  1
 16 30  1
 14 31  1
  4 31  1
 11 31  1
  1 32  1
  1 33  1
  1 34  1
  7 35  1
  7 36  1
  7 37  1
 10 38  1
 10 39  1
 12 40  1
 13 41  1
 15 42  1
 15 43  1
 17 44  1
 18 45  1
 20 46  1
 20 47  1
 22 48  1
 23 49  1
 25 50  1
 25 51  1
 27 52  1
 28 53  1
  8 54  1
 29 55  1
 30 56  1
 31 57  1
M  CHG  1   4   3
M  END
$$$$
