
     RDKit          3D

 55 59  0  0  0  0  0  0  0  0999 V2000
    3.6558    0.0339    3.5879 C   0  0  0  0  0  0  0  0  0  0  0  0
    3.7939    1.0782    2.6983 C   0  0  0  0  0  0  0  0  0  0  0  0
    3.1238    1.0598    1.4959 C   0  0  0  0  0  0  0  0  0  0  0  0
    2.2905    0.0308    1.1005 C   0  0  0  0  0  0  0  0  0  0  0  0
    1.4809    0.1205   -0.4743 P   0  0  0  0  0  5  0  0  0  0  0  0
    2.5139   -0.6857   -1.6637 C   0  0  0  0  0  0  0  0  0  0  0  0
    3.0849   -1.8823   -1.2179 C   0  0  0  0  0  0  0  0  0  0  0  0
    3.9272   -2.6423   -2.0367 C   0  0  0  0  0  0  0  0  0  0  0  0
    4.1987   -2.1959   -3.3165 C   0  0  0  0  0  0  0  0  0  0  0  0
    3.6336   -1.0065   -3.7653 C   0  0  0  0  0  0  0  0  0  0  0  0
    2.8054   -0.2730   -2.9398 C   0  0  0  0  0  0  0  0  0  0  0  0
    1.2333    1.9627   -0.9109 S   0  0  0  0  0  4  0  0  0  0  0  0
    0.5196    2.6153    0.9825 Cu  0  0  0  0  0  3  0  0  0  0  0  0
    0.4948    4.5597    1.1580 I   0  0  0  0  0  0  0  0  0  0  0  0
   -0.6795    1.3533    1.7525 S   0  0  0  0  0  4  0  0  0  0  0  0
   -1.3864    0.3153    0.3495 P   0  0  0  0  0  5  0  0  0  0  0  0
   -2.2579    1.4507   -0.7403 C   0  0  0  0  0  0  0  0  0  0  0  0
   -3.2361    2.1587   -0.0541 C   0  0  0  0  0  0  0  0  0  0  0  0
   -4.0293    3.0913   -0.7059 C   0  0  0  0  0  0  0  0  0  0  0  0
   -3.8215    3.2983   -2.0563 C   0  0  0  0  0  0  0  0  0  0  0  0
   -2.8474    2.5894   -2.7264 C   0  0  0  0  0  0  0  0  0  0  0  0
   -2.0555    1.6613   -2.0856 C   0  0  0  0  0  0  0  0  0  0  0  0
   -2.6289   -0.8434    0.9431 C   0  0  0  0  0  0  0  0  0  0  0  0
   -2.9144   -1.9434    0.1257 C   0  0  0  0  0  0  0  0  0  0  0  0
   -3.8403   -2.9171    0.4419 C   0  0  0  0  0  0  0  0  0  0  0  0
   -4.5294   -2.8066    1.6326 C   0  0  0  0  0  0  0  0  0  0  0  0
   -4.2532   -1.7286    2.4392 C   0  0  0  0  0  0  0  0  0  0  0  0
   -3.3276   -0.7538    2.1248 C   0  0  0  0  0  0  0  0  0  0  0  0
   -0.1426   -0.6490   -0.5003 C   0  0  0  0  0  0  0  0  0  0  0  0
    2.1604   -1.0046    1.9953 C   0  0  0  0  0  0  0  0  0  0  0  0
    2.8370   -0.9943    3.2182 C   0  0  0  0  0  0  0  0  0  0  0  0
    4.1759    0.0454    4.5242 H   0  0  0  0  0  0  0  0  0  0  0  0
    4.4501    1.8893    3.0088 H   0  0  0  0  0  0  0  0  0  0  0  0
    3.3179    1.9358    0.8924 H   0  0  0  0  0  0  0  0  0  0  0  0
    2.9393   -2.3288   -0.2271 H   0  0  0  0  0  0  0  0  0  0  0  0
    4.3728   -3.5671   -1.7020 H   0  0  0  0  0  0  0  0  0  0  0  0
    4.8531   -2.7738   -3.9711 H   0  0  0  0  0  0  0  0  0  0  0  0
    3.8273   -0.6342   -4.7574 H   0  0  0  0  0  0  0  0  0  0  0  0
    2.3320    0.6574   -3.2188 H   0  0  0  0  0  0  0  0  0  0  0  0
    2.4703    2.5992   -0.8417 H   0  0  0  0  0  0  0  0  0  0  0  0
   -0.1082    0.6260    2.7729 H   0  0  0  0  0  0  0  0  0  0  0  0
   -3.4858    2.0783    1.0017 H   0  0  0  0  0  0  0  0  0  0  0  0
   -4.8071    3.6742   -0.2276 H   0  0  0  0  0  0  0  0  0  0  0  0
   -4.4226    4.0192   -2.5980 H   0  0  0  0  0  0  0  0  0  0  0  0
   -2.6382    2.7099   -3.7898 H   0  0  0  0  0  0  0  0  0  0  0  0
   -1.2696    1.0496   -2.4925 H   0  0  0  0  0  0  0  0  0  0  0  0
   -2.3800   -2.0489   -0.8204 H   0  0  0  0  0  0  0  0  0  0  0  0
   -3.9951   -3.7344   -0.2539 H   0  0  0  0  0  0  0  0  0  0  0  0
   -5.2505   -3.5762    1.8660 H   0  0  0  0  0  0  0  0  0  0  0  0
   -4.7973   -1.6512    3.3682 H   0  0  0  0  0  0  0  0  0  0  0  0
   -3.0929    0.0916    2.7293 H   0  0  0  0  0  0  0  0  0  0  0  0
   -0.1079   -1.7246   -0.1573 H   0  0  0  0  0  0  0  0  0  0  0  0
   -0.4227   -0.7406   -1.5847 H   0  0  0  0  0  0  0  0  0  0  0  0
    1.5075   -1.8361    1.7130 H   0  0  0  0  0  0  0  0  0  0  0  0
    2.7279   -1.8129    3.9141 H   0  0  0  0  0  0  0  0  0  0  0  0
  1  2  2  0
  2  3  1  0
  3  4  2  0
  4  5  1  0
  5  6  1  0
  6  7  2  0
  7  8  1  0
  8  9  2  0
  9 10  1  0
 10 11  2  0
  5 12  2  0
 12 13  1  0
 13 14  1  0
 13 15  1  0
 15 16  2  0
 16 17  1  0
 17 18  2  0
 18 19  1  0
 19 20  2  0
 20 21  1  0
 21 22  2  0
 16 23  1  0
 23 24  2  0
 24 25  1  0
 25 26  2  0
 26 27  1  0
 27 28  2  0
 16 29  1  0
  4 30  1  0
 30 31  2  0
 31  1  1  0
 29  5  1  0
 11  6  1  0
 22 17  1  0
 28 23  1  0
  1 32  1  0
  2 33  1  0
  3 34  1  0
  7 35  1  0
  8 36  1  0
  9 37  1  0
 10 38  1  0
 11 39  1  0
 12 40  1  0
 15 41  1  0
 18 42  1  0
 19 43  1  0
 20 44  1  0
 21 45  1  0
 22 46  1  0
 24 47  1  0
 25 48  1  0
 26 49  1  0
 27 50  1  0
 28 51  1  0
 29 52  1  0
 29 53  1  0
 30 54  1  0
 31 55  1  0
M  END
