
  --CCDC--092525    3D                              

 64 65  0  0  0  0  0  0  0  0999 V2000
    1.8810    1.4434    0.3279 H      0
    0.8857    1.0301    0.1715 C      0
    0.6585    1.0238   -0.8935 H      0
   -0.1068    1.9072    0.8637 C      0
   -1.3010    2.1326    0.3627 N      0
   -2.0033    2.8920    1.2270 N      0
   -3.1980    3.5320    0.9757 O      0
   -2.2671    4.5688    0.5627 C      0
   -2.6790    5.4662    0.1308 H      0
   -1.6045    4.2216   -0.2255 H      0
   -1.5750    4.9611    1.3010 H      0
   -3.2946    3.2284   -0.4218 C      0
   -3.2760    4.0981   -1.0721 H      0
   -4.1992    2.7138   -0.6695 H      0
   -2.5144    2.6184   -0.8532 H      0
   -3.2709    3.9462    2.3541 C      0
   -4.2573    4.1624    2.7099 H      0
   -2.7131    4.8408    2.6147 H      0
   -2.9311    3.2059    3.0671 H      0
   -4.5571    4.5167    0.7106 P      0
   -6.1609    4.3262    1.5566 C      0
   -6.5801    3.3330    1.4198 H      0
   -6.1145    4.5334    2.6230 H      0
   -6.8784    5.0363    1.1513 H      0
   -4.4381    6.1410    1.5427 C      0
   -4.9011    6.9007    0.9165 H      0
   -4.9687    6.1583    2.4929 H      0
   -3.4151    6.4591    1.7269 H      0
   -5.6683    4.0605   -0.6676 C      0
   -5.1900    4.1087   -1.6452 H      0
   -6.4941    4.7663   -0.7157 H      0
   -6.1120    3.0754   -0.5386 H      0
   -3.9344    2.0855    1.3627 P      0
   -3.9006    0.7677    0.0989 C      0
   -4.0064   -0.1977    0.5893 H      0
   -2.9749    0.7372   -0.4676 H      0
   -4.7273    0.8398   -0.6054 H      0
   -4.8570    1.9294    2.9300 C      0
   -5.4695    1.0310    2.8930 H      0
   -5.5245    2.7472    3.1589 H      0
   -4.1851    1.8103    3.7768 H      0
   -2.9358    0.8629    2.2642 C      0
   -3.5846    0.0878    2.6666 H      0
   -2.2072    0.3619    1.6332 H      0
   -2.4143    1.3172    3.1034 H      0
   -1.2122    3.1396    2.2922 N      0
   -0.0500    2.5549    2.1044 C      0
    1.0115    2.5663    3.1738 C      0
    0.7051    3.2789    3.9381 H      0
    1.9406    2.9022    2.7158 H      0
    1.2875    1.2384    3.8620 C      0
    0.3508    0.9064    4.3072 H      0
    2.0157    1.4295    4.6488 H      0
    1.8167    0.0948    3.0340 C      0
    2.2486   -0.6439    3.7076 H      0
    2.5917    0.4808    2.3735 H      0
    0.7489   -0.6038    2.1704 C      0
   -0.2262   -0.2282    2.4770 H      0
    0.8054   -1.6728    2.3701 H      0
    0.8732   -0.4045    0.6769 C      0
    1.8033   -0.8732    0.3589 H      0
    0.0320   -0.9114    0.2064 H      0
   -4.3729    5.4159   -0.3485 H      0
   -5.2459    2.0563    0.8866 H      0
  1  2  1
  2  3  1
  2  4  1
  4  5  2
  5  6  1
  6  7  1
  7  8  1
  8  9  1
  8 10  1
  8 11  1
  7 12  1
 12 13  1
 12 14  1
 12 15  1
  7 16  1
 16 17  1
 16 18  1
 16 19  1
  7 20  1
 20 21  1
 21 22  1
 21 23  1
 21 24  1
 20 25  1
 25 26  1
 25 27  1
 25 28  1
 20 29  1
 29 30  1
 29 31  1
 29 32  1
  7 33  1
 33 34  1
 34 35  1
 34 36  1
 34 37  1
 33 38  1
 38 39  1
 38 40  1
 38 41  1
 33 42  1
 42 43  1
 42 44  1
 42 45  1
  6 46  1
 46 47  2
  4 47  1
 47 48  1
 48 49  1
 48 50  1
 48 51  1
 51 52  1
 51 53  1
 51 54  1
 54 55  1
 54 56  1
 54 57  1
 57 58  1
 57 59  1
 57 60  1
  2 60  1
 60 61  1
 60 62  1
 20 63  1
 33 64  1
M  END
$$$$
