
 OpenBabel09252515253D

 28 28  0  0  0  0  0  0  0  0999 V2000
    0.8150    0.0493   -0.5547 C   0  0  0  0  0  0  0  0  0  0  0  0
    0.5378   -1.4293   -0.3267 C   0  0  0  0  0  0  0  0  0  0  0  0
    1.0495   -2.2300    0.8867 C   0  0  0  0  0  0  0  0  0  0  0  0
    1.7885   -1.6197    2.0125 C   0  0  0  0  0  0  0  0  0  0  0  0
    2.0944   -0.3341    2.2460 C   0  0  0  0  0  0  0  0  0  0  0  0
    2.8834    0.1679    3.3843 C   0  0  0  0  0  0  0  0  0  0  0  0
    4.0414   -0.4739    3.8451 C   0  0  0  0  0  0  0  0  0  0  0  0
    4.8240    0.1163    4.8426 C   0  0  0  0  0  0  0  0  0  0  0  0
    4.4520    1.3461    5.3733 C   0  0  0  0  0  0  0  0  0  0  0  0
    5.2164    1.9208    6.3108 F   0  0  0  0  0  0  0  0  0  0  0  0
    3.3069    1.9957    4.9335 C   0  0  0  0  0  0  0  0  0  0  0  0
    2.5255    1.4082    3.9377 C   0  0  0  0  0  0  0  0  0  0  0  0
    0.8005   -3.5764    0.8813 C   0  0  0  0  0  0  0  0  0  0  0  0
    0.1269   -4.2097   -0.2102 C   0  0  0  0  0  0  0  0  0  0  0  0
   -0.4111   -4.7037   -1.1127 N   0  0  0  0  0  0  0  0  0  0  0  0
    1.1816   -4.4521    1.9426 C   0  0  0  0  0  0  0  0  0  0  0  0
    1.4897   -5.1610    2.8077 N   0  0  0  0  0  0  0  0  0  0  0  0
    0.3030    0.6709    0.1860 H   0  0  0  0  0  0  0  0  0  0  0  0
    0.4200    0.3500   -1.5317 H   0  0  0  0  0  0  0  0  0  0  0  0
    1.8874    0.2649   -0.5646 H   0  0  0  0  0  0  0  0  0  0  0  0
   -0.5562   -1.5361   -0.3485 H   0  0  0  0  0  0  0  0  0  0  0  0
    0.9214   -1.9261   -1.2292 H   0  0  0  0  0  0  0  0  0  0  0  0
    2.1399   -2.3157    2.7776 H   0  0  0  0  0  0  0  0  0  0  0  0
    1.7840    0.4688    1.5978 H   0  0  0  0  0  0  0  0  0  0  0  0
    4.3659   -1.4187    3.4158 H   0  0  0  0  0  0  0  0  0  0  0  0
    5.7306   -0.3657    5.1948 H   0  0  0  0  0  0  0  0  0  0  0  0
    3.0368    2.9587    5.3545 H   0  0  0  0  0  0  0  0  0  0  0  0
    1.6389    1.9332    3.5876 H   0  0  0  0  0  0  0  0  0  0  0  0
  1  2  1  0  0  0  0
  1 18  1  0  0  0  0
  1 19  1  0  0  0  0
  1 20  1  0  0  0  0
  2  3  1  0  0  0  0
  2 21  1  0  0  0  0
  2 22  1  0  0  0  0
  3  4  1  0  0  0  0
  3 13  2  0  0  0  0
  4  5  2  0  0  0  0
  4 23  1  0  0  0  0
  5  6  1  0  0  0  0
  5 24  1  0  0  0  0
  6  7  1  0  0  0  0
  6 12  2  0  0  0  0
  7  8  2  0  0  0  0
  7 25  1  0  0  0  0
  8  9  1  0  0  0  0
  8 26  1  0  0  0  0
  9 10  1  0  0  0  0
  9 11  2  0  0  0  0
 11 12  1  0  0  0  0
 11 27  1  0  0  0  0
 12 28  1  0  0  0  0
 13 14  1  0  0  0  0
 13 16  1  0  0  0  0
 14 15  3  0  0  0  0
 16 17  3  0  0  0  0
M  END
$$$$
