
 OpenBabel09252519523D

 28 28  0  0  0  0  0  0  0  0999 V2000
    1.3044   -0.2958   -0.1008 C   0  0  0  0  0  0  0  0  0  0  0  0
    0.5579   -0.3965    1.2279 C   0  0  0  0  0  0  0  0  0  0  0  0
    1.0545    0.5702    2.3071 C   0  0  0  0  0  0  0  0  0  0  0  0
    0.8533    2.0109    2.0597 C   0  0  0  0  0  0  0  0  0  0  0  0
    0.0973    2.5671    1.0975 C   0  0  0  0  0  0  0  0  0  0  0  0
   -0.0071    4.0175    0.8660 C   0  0  0  0  0  0  0  0  0  0  0  0
    1.0782    4.8889    1.0527 C   0  0  0  0  0  0  0  0  0  0  0  0
    0.9485    6.2530    0.7806 C   0  0  0  0  0  0  0  0  0  0  0  0
   -0.2602    6.7450    0.3063 C   0  0  0  0  0  0  0  0  0  0  0  0
   -0.3834    8.0521    0.0429 F   0  0  0  0  0  0  0  0  0  0  0  0
   -1.3400    5.8982    0.0925 C   0  0  0  0  0  0  0  0  0  0  0  0
   -1.2119    4.5345    0.3668 C   0  0  0  0  0  0  0  0  0  0  0  0
    1.6513    0.1272    3.4490 C   0  0  0  0  0  0  0  0  0  0  0  0
    1.8913   -1.2580    3.6910 C   0  0  0  0  0  0  0  0  0  0  0  0
    2.0895   -2.3862    3.8801 N   0  0  0  0  0  0  0  0  0  0  0  0
    2.0597    1.0118    4.4937 C   0  0  0  0  0  0  0  0  0  0  0  0
    2.3807    1.7415    5.3369 N   0  0  0  0  0  0  0  0  0  0  0  0
    1.1111    0.6499   -0.6149 H   0  0  0  0  0  0  0  0  0  0  0  0
    0.9751   -1.0964   -0.7718 H   0  0  0  0  0  0  0  0  0  0  0  0
    2.3855   -0.3915    0.0388 H   0  0  0  0  0  0  0  0  0  0  0  0
   -0.5164   -0.2453    1.0658 H   0  0  0  0  0  0  0  0  0  0  0  0
    0.6391   -1.4379    1.5577 H   0  0  0  0  0  0  0  0  0  0  0  0
    1.3775    2.6938    2.7292 H   0  0  0  0  0  0  0  0  0  0  0  0
   -0.4970    1.9611    0.4198 H   0  0  0  0  0  0  0  0  0  0  0  0
    2.0407    4.5192    1.3983 H   0  0  0  0  0  0  0  0  0  0  0  0
    1.7839    6.9298    0.9292 H   0  0  0  0  0  0  0  0  0  0  0  0
   -2.2725    6.3022   -0.2881 H   0  0  0  0  0  0  0  0  0  0  0  0
   -2.0638    3.8811    0.1911 H   0  0  0  0  0  0  0  0  0  0  0  0
  1  2  1  0  0  0  0
  1 18  1  0  0  0  0
  1 19  1  0  0  0  0
  1 20  1  0  0  0  0
  2  3  1  0  0  0  0
  2 21  1  0  0  0  0
  2 22  1  0  0  0  0
  3  4  1  0  0  0  0
  3 13  2  0  0  0  0
  4  5  2  0  0  0  0
  4 23  1  0  0  0  0
  5  6  1  0  0  0  0
  5 24  1  0  0  0  0
  6  7  1  0  0  0  0
  6 12  2  0  0  0  0
  7  8  2  0  0  0  0
  7 25  1  0  0  0  0
  8  9  1  0  0  0  0
  8 26  1  0  0  0  0
  9 10  1  0  0  0  0
  9 11  2  0  0  0  0
 11 12  1  0  0  0  0
 11 27  1  0  0  0  0
 12 28  1  0  0  0  0
 13 14  1  0  0  0  0
 13 16  1  0  0  0  0
 14 15  3  0  0  0  0
 16 17  3  0  0  0  0
M  END
$$$$
