
     RDKit          3D

 53 57  0  0  0  0  0  0  0  0999 V2000
   -0.8851   -2.4770   -3.9626 I   0  0  0  0  0  0  0  0  0  0  0  0
    0.3675   -2.6993   -1.3974 Cu  0  0  0  0  0  3  0  0  0  0  0  0
   -1.0604   -2.0784   -0.5041 S   0  0  0  0  0  3  0  0  0  0  0  0
   -1.4507   -0.4321   -0.1207 P   0  0  0  0  0  0  0  0  0  0  0  0
   -0.0229    0.6000    0.2230 C   0  0  0  0  0  0  0  0  0  0  0  0
    1.5182   -0.0484   -0.4154 P   0  0  0  0  0  0  0  0  0  0  0  0
    1.4457   -0.8684   -1.9184 S   0  0  0  0  0  3  0  0  0  0  0  0
    2.6134    1.3330   -0.7019 C   0  0  0  0  0  0  0  0  0  0  0  0
    2.7575    1.9552   -1.9155 C   0  0  0  0  0  0  0  0  0  0  0  0
    3.6120    3.0244   -2.1159 C   0  0  0  0  0  0  0  0  0  0  0  0
    4.3693    3.5081   -1.0552 C   0  0  0  0  0  0  0  0  0  0  0  0
    4.2299    2.8917    0.1573 C   0  0  0  0  0  0  0  0  0  0  0  0
    3.3804    1.8303    0.3527 C   0  0  0  0  0  0  0  0  0  0  0  0
    2.3470   -1.1584    0.7077 C   0  0  0  0  0  0  0  0  0  0  0  0
    3.6796   -1.3762    0.3893 C   0  0  0  0  0  0  0  0  0  0  0  0
    4.5035   -2.2007    1.1276 C   0  0  0  0  0  0  0  0  0  0  0  0
    3.9626   -2.8375    2.2401 C   0  0  0  0  0  0  0  0  0  0  0  0
    2.6385   -2.6257    2.5627 C   0  0  0  0  0  0  0  0  0  0  0  0
    1.8191   -1.7907    1.8080 C   0  0  0  0  0  0  0  0  0  0  0  0
   -2.5090   -0.5494    1.3316 C   0  0  0  0  0  0  0  0  0  0  0  0
   -2.3864    0.3603    2.3648 C   0  0  0  0  0  0  0  0  0  0  0  0
   -3.2027    0.2605    3.4724 C   0  0  0  0  0  0  0  0  0  0  0  0
   -4.1578   -0.7383    3.5861 C   0  0  0  0  0  0  0  0  0  0  0  0
   -4.2832   -1.6532    2.5502 C   0  0  0  0  0  0  0  0  0  0  0  0
   -3.4612   -1.5387    1.4536 C   0  0  0  0  0  0  0  0  0  0  0  0
   -2.4705    0.1561   -1.4419 C   0  0  0  0  0  0  0  0  0  0  0  0
   -3.8588    0.0933   -1.3984 C   0  0  0  0  0  0  0  0  0  0  0  0
   -4.6782    0.5490   -2.4237 C   0  0  0  0  0  0  0  0  0  0  0  0
   -4.1057    1.0962   -3.5536 C   0  0  0  0  0  0  0  0  0  0  0  0
   -2.7159    1.1881   -3.6593 C   0  0  0  0  0  0  0  0  0  0  0  0
   -1.9787    0.7155   -2.6031 C   0  0  0  0  0  0  0  0  0  0  0  0
   -0.2036    1.6108   -0.1860 H   0  0  0  0  0  0  0  0  0  0  0  0
    0.0861    0.6775    1.3250 H   0  0  0  0  0  0  0  0  0  0  0  0
    2.1623    1.5675   -2.7290 H   0  0  0  0  0  0  0  0  0  0  0  0
    3.6680    3.4663   -3.1215 H   0  0  0  0  0  0  0  0  0  0  0  0
    5.0208    4.3527   -1.2866 H   0  0  0  0  0  0  0  0  0  0  0  0
    4.8479    3.3137    0.9499 H   0  0  0  0  0  0  0  0  0  0  0  0
    3.3366    1.4054    1.3510 H   0  0  0  0  0  0  0  0  0  0  0  0
    4.1973   -0.9265   -0.4588 H   0  0  0  0  0  0  0  0  0  0  0  0
    5.5440   -2.3836    0.8964 H   0  0  0  0  0  0  0  0  0  0  0  0
    4.5912   -3.4863    2.8301 H   0  0  0  0  0  0  0  0  0  0  0  0
    2.1749   -3.1064    3.4278 H   0  0  0  0  0  0  0  0  0  0  0  0
    0.7880   -1.5725    1.9870 H   0  0  0  0  0  0  0  0  0  0  0  0
   -1.6560    1.1473    2.3089 H   0  0  0  0  0  0  0  0  0  0  0  0
   -3.1270    0.9700    4.3084 H   0  0  0  0  0  0  0  0  0  0  0  0
   -4.8099   -0.8383    4.4438 H   0  0  0  0  0  0  0  0  0  0  0  0
   -5.0417   -2.4360    2.6544 H   0  0  0  0  0  0  0  0  0  0  0  0
   -3.5916   -2.2777    0.6612 H   0  0  0  0  0  0  0  0  0  0  0  0
   -4.3526   -0.3308   -0.5259 H   0  0  0  0  0  0  0  0  0  0  0  0
   -5.7489    0.4774   -2.3407 H   0  0  0  0  0  0  0  0  0  0  0  0
   -4.7059    1.4605   -4.3699 H   0  0  0  0  0  0  0  0  0  0  0  0
   -2.2893    1.6127   -4.5372 H   0  0  0  0  0  0  0  0  0  0  0  0
   -0.9078    0.8068   -2.7280 H   0  0  0  0  0  0  0  0  0  0  0  0
  1  2  1  0
  2  3  1  0
  3  4  2  0
  4  5  1  0
  5  6  1  0
  6  7  2  0
  6  8  1  0
  8  9  2  0
  9 10  1  0
 10 11  2  0
 11 12  1  0
 12 13  2  0
  6 14  1  0
 14 15  2  0
 15 16  1  0
 16 17  2  0
 17 18  1  0
 18 19  2  0
  4 20  1  0
 20 21  2  0
 21 22  1  0
 22 23  2  0
 23 24  1  0
 24 25  2  0
  4 26  1  0
 26 27  2  0
 27 28  1  0
 28 29  2  0
 29 30  1  0
 30 31  2  0
  7  2  1  0
 13  8  1  0
 19 14  1  0
 25 20  1  0
 31 26  1  0
  5 32  1  0
  5 33  1  0
  9 34  1  0
 10 35  1  0
 11 36  1  0
 12 37  1  0
 13 38  1  0
 15 39  1  0
 16 40  1  0
 17 41  1  0
 18 42  1  0
 19 43  1  0
 21 44  1  0
 22 45  1  0
 23 46  1  0
 24 47  1  0
 25 48  1  0
 27 49  1  0
 28 50  1  0
 29 51  1  0
 30 52  1  0
 31 53  1  0
M  RAD  2   3   2   7   2
M  END
