
     RDKit          3D

 57 60  0  0  0  0  0  0  0  0999 V2000
    4.9907    1.7777    1.8840 C   0  0  0  0  0  0  0  0  0  0  0  0
    4.7523    2.7845    0.9519 C   0  0  0  0  0  0  0  0  0  0  0  0
    3.7781    2.6069   -0.0322 C   0  0  0  0  0  0  0  0  0  0  0  0
    3.0153    1.4324   -0.0795 C   0  0  0  0  0  0  0  0  0  0  0  0
    2.0552    1.3117   -1.1689 N   0  0  0  0  0  0  0  0  0  0  0  0
    0.9354    0.4113   -0.9142 C   0  0  0  0  0  0  0  0  0  0  0  0
   -0.1563    0.9150   -0.2985 C   0  0  0  0  0  0  0  0  0  0  0  0
   -1.3299    0.1227   -0.0903 C   0  0  0  0  0  0  0  0  0  0  0  0
   -2.3197   -0.5374    0.0795 C   0  0  0  0  0  0  0  0  0  0  0  0
   -3.4988   -1.3300    0.2720 C   0  0  0  0  0  0  0  0  0  0  0  0
   -4.7030   -0.8766   -0.2815 C   0  0  0  0  0  0  0  0  0  0  0  0
   -5.8723   -1.6181   -0.1210 C   0  0  0  0  0  0  0  0  0  0  0  0
   -5.8397   -2.8141    0.5926 C   0  0  0  0  0  0  0  0  0  0  0  0
   -4.6399   -3.2730    1.1481 C   0  0  0  0  0  0  0  0  0  0  0  0
   -3.4598   -2.5356    0.9965 C   0  0  0  0  0  0  0  0  0  0  0  0
   -2.2383   -2.9092    1.5012 O   0  0  0  0  0  0  0  0  0  0  0  0
   -2.2022   -4.0485    2.3511 C   0  0  0  0  0  0  0  0  0  0  0  0
   -0.4482    2.6929    0.3153 Si  0  0  0  0  0  4  0  0  0  0  0  0
    0.3789    2.9506    1.9821 C   0  0  0  0  0  0  0  0  0  0  0  0
    0.1498    3.9637   -0.9325 C   0  0  0  0  0  0  0  0  0  0  0  0
   -2.3049    3.0189    0.5592 C   0  0  0  0  0  0  0  0  0  0  0  0
    1.1366   -0.9274   -1.5179 C   0  0  0  0  0  0  0  0  0  0  0  0
    0.5628   -2.1567   -1.2155 C   0  0  0  0  0  0  0  0  0  0  0  0
    0.9776   -3.3034   -1.9102 C   0  0  0  0  0  0  0  0  0  0  0  0
    1.9808   -3.2317   -2.8869 C   0  0  0  0  0  0  0  0  0  0  0  0
    2.5856   -2.0128   -3.1781 C   0  0  0  0  0  0  0  0  0  0  0  0
    2.1376   -0.8984   -2.4849 C   0  0  0  0  0  0  0  0  0  0  0  0
    2.7872    0.7134   -2.6439 S   0  0  0  0  0  6  0  0  0  0  0  0
    4.2270    0.6312   -2.5369 O   0  0  0  0  0  0  0  0  0  0  0  0
    2.1220    1.3201   -3.7777 O   0  0  0  0  0  0  0  0  0  0  0  0
    3.2883    0.4106    0.8397 C   0  0  0  0  0  0  0  0  0  0  0  0
    4.2644    0.5898    1.8242 C   0  0  0  0  0  0  0  0  0  0  0  0
    5.7523    1.9125    2.6478 H   0  0  0  0  0  0  0  0  0  0  0  0
    5.3301    3.7046    0.9826 H   0  0  0  0  0  0  0  0  0  0  0  0
    3.6156    3.3937   -0.7648 H   0  0  0  0  0  0  0  0  0  0  0  0
   -4.7319    0.0552   -0.8416 H   0  0  0  0  0  0  0  0  0  0  0  0
   -6.8043   -1.2653   -0.5561 H   0  0  0  0  0  0  0  0  0  0  0  0
   -6.7508   -3.3956    0.7155 H   0  0  0  0  0  0  0  0  0  0  0  0
   -4.6617   -4.2139    1.6891 H   0  0  0  0  0  0  0  0  0  0  0  0
   -2.8596   -3.9173    3.2173 H   0  0  0  0  0  0  0  0  0  0  0  0
   -1.1778   -4.1556    2.7242 H   0  0  0  0  0  0  0  0  0  0  0  0
   -2.4514   -4.9589    1.7953 H   0  0  0  0  0  0  0  0  0  0  0  0
    0.1084    3.9285    2.3934 H   0  0  0  0  0  0  0  0  0  0  0  0
    0.0585    2.1837    2.6942 H   0  0  0  0  0  0  0  0  0  0  0  0
    1.4671    2.9104    1.9037 H   0  0  0  0  0  0  0  0  0  0  0  0
    1.2379    3.9727   -1.0163 H   0  0  0  0  0  0  0  0  0  0  0  0
   -0.2704    3.7579   -1.9222 H   0  0  0  0  0  0  0  0  0  0  0  0
   -0.1676    4.9669   -0.6327 H   0  0  0  0  0  0  0  0  0  0  0  0
   -2.4622    4.0580    0.8635 H   0  0  0  0  0  0  0  0  0  0  0  0
   -2.8527    2.8448   -0.3725 H   0  0  0  0  0  0  0  0  0  0  0  0
   -2.7137    2.3690    1.3386 H   0  0  0  0  0  0  0  0  0  0  0  0
   -0.1867   -2.2621   -0.4383 H   0  0  0  0  0  0  0  0  0  0  0  0
    0.5201   -4.2633   -1.6781 H   0  0  0  0  0  0  0  0  0  0  0  0
    2.2919   -4.1334   -3.4105 H   0  0  0  0  0  0  0  0  0  0  0  0
    3.3773   -1.9352   -3.9159 H   0  0  0  0  0  0  0  0  0  0  0  0
    2.7551   -0.5342    0.8169 H   0  0  0  0  0  0  0  0  0  0  0  0
    4.4640   -0.2037    2.5404 H   0  0  0  0  0  0  0  0  0  0  0  0
  1  2  2  0
  2  3  1  0
  3  4  2  0
  4  5  1  0
  5  6  1  0
  6  7  2  0
  7  8  1  0
  8  9  3  0
  9 10  1  0
 10 11  2  0
 11 12  1  0
 12 13  2  0
 13 14  1  0
 14 15  2  0
 15 16  1  0
 16 17  1  0
  7 18  1  0
 18 19  1  0
 18 20  1  0
 18 21  1  0
  6 22  1  0
 22 23  2  0
 23 24  1  0
 24 25  2  0
 25 26  1  0
 26 27  2  0
 27 28  1  0
 28 29  2  0
 28 30  2  0
  4 31  1  0
 31 32  2  0
 32  1  1  0
 28  5  1  0
 15 10  1  0
 27 22  1  0
  1 33  1  0
  2 34  1  0
  3 35  1  0
 11 36  1  0
 12 37  1  0
 13 38  1  0
 14 39  1  0
 17 40  1  0
 17 41  1  0
 17 42  1  0
 19 43  1  0
 19 44  1  0
 19 45  1  0
 20 46  1  0
 20 47  1  0
 20 48  1  0
 21 49  1  0
 21 50  1  0
 21 51  1  0
 23 52  1  0
 24 53  1  0
 25 54  1  0
 26 55  1  0
 31 56  1  0
 32 57  1  0
M  END
