
 OpenBabel09252513123D

 47 52  0  0  0  0  0  0  0  0999 V2000
    1.0536    0.0245   -0.0808 H   0  0  0  0  0  0  0  0  0  0  0  0
    2.1236    0.0245   -0.0808 C   0  0  0  0  0  0  0  0  0  0  0  0
    2.7814   -0.1416    1.0464 N   0  0  0  0  0  4  0  0  0  0  0  0
    2.1418   -0.3368    2.4222 C   0  0  0  0  0  0  0  0  0  0  0  0
    2.3285   -1.3333    2.7643 H   0  0  0  0  0  0  0  0  0  0  0  0
    2.5630    0.3625    3.1138 H   0  0  0  0  0  0  0  0  0  0  0  0
    0.6329   -0.1071    2.3201 C   0  0  0  0  0  0  0  0  0  0  0  0
    0.4083    0.3853    1.3970 H   0  0  0  0  0  0  0  0  0  0  0  0
    0.1255   -1.0485    2.3542 H   0  0  0  0  0  0  0  0  0  0  0  0
    0.1702    0.7648    3.4899 C   0  0  0  0  0  0  0  0  0  0  0  0
   -0.8558    0.5536    3.7083 H   0  0  0  0  0  0  0  0  0  0  0  0
    0.7689    0.5533    4.3511 H   0  0  0  0  0  0  0  0  0  0  0  0
    0.3164    2.2188    3.1211 N   0  0  0  0  0  4  0  0  0  0  0  0
    1.0925    3.0005    3.8305 C   0  0  0  0  0  0  0  0  0  0  0  0
    1.8461    2.4408    5.0260 C   0  0  0  0  0  0  0  0  0  0  0  0
    2.8980    2.5648    4.8746 H   0  0  0  0  0  0  0  0  0  0  0  0
    1.5492    2.9633    5.9113 H   0  0  0  0  0  0  0  0  0  0  0  0
    1.6216    1.4002    5.1338 H   0  0  0  0  0  0  0  0  0  0  0  0
    1.2383    4.4536    3.4617 C   0  0  0  0  0  3  0  0  0  0  0  0
    2.6884    4.8549    3.5630 C   0  0  0  0  0  3  0  0  0  0  0  0
    3.1549    4.1614    4.2311 H   0  0  0  0  0  0  0  0  0  0  0  0
    3.5438    4.9074    2.3237 C   0  0  0  0  0  3  0  0  0  0  0  0
    4.1075    5.8169    2.3174 H   0  0  0  0  0  0  0  0  0  0  0  0
    4.4527    3.7738    2.3155 C   0  0  0  0  0  3  0  0  0  0  0  0
    4.0656    3.0445    2.9961 H   0  0  0  0  0  0  0  0  0  0  0  0
    4.6527    3.1625    1.1375 C   0  0  0  0  0  3  0  0  0  0  0  0
    3.6949    2.8300    0.7954 H   0  0  0  0  0  0  0  0  0  0  0  0
    5.5805    1.9784    1.0515 C   0  0  0  0  0  3  0  0  0  0  0  0
    4.9155    0.8676    0.2360 O   0  0  0  0  0  0  0  0  0  0  0  0
    4.3049   -0.1621    1.1850 Cu  0  0  0  0  0  0  0  0  0  0  0  0
    5.8000   -1.4115    1.5372 O   0  0  0  0  0  0  0  0  0  0  0  0
    6.5565   -1.5912    0.3490 C   0  0  0  0  0  3  0  0  0  0  0  0
    7.1189   -0.2465   -0.1140 C   0  0  0  0  0  3  0  0  0  0  0  0
    7.6893   -0.3874   -1.0083 H   0  0  0  0  0  0  0  0  0  0  0  0
    5.9664    0.7203   -0.3914 C   0  0  0  0  0  3  0  0  0  0  0  0
    6.3600    1.6609   -0.7158 H   0  0  0  0  0  0  0  0  0  0  0  0
    5.0660    0.1405   -1.4837 C   0  0  0  0  0  3  0  0  0  0  0  0
    3.9135    1.1072   -1.7611 C   0  0  0  0  0  3  0  0  0  0  0  0
    4.3072    2.0478   -2.0854 H   0  0  0  0  0  0  0  0  0  0  0  0
    3.0132    0.5274   -2.8534 C   0  0  0  0  0  3  0  0  0  0  0  0
    3.5834    0.3864   -3.7478 H   0  0  0  0  0  0  0  0  0  0  0  0
    2.4499   -0.8172   -2.3909 C   0  0  0  0  0  3  0  0  0  0  0  0
    1.8209   -1.2226   -3.1556 H   0  0  0  0  0  0  0  0  0  0  0  0
    3.6033   -1.7841   -2.1129 C   0  0  0  0  0  3  0  0  0  0  0  0
    4.1735   -1.9254   -3.0073 H   0  0  0  0  0  0  0  0  0  0  0  0
    4.5036   -1.2043   -1.0207 C   0  0  0  0  0  3  0  0  0  0  0  0
    5.6561   -2.1710   -0.7433 C   0  0  0  0  0  3  0  0  0  0  0  0
  1  2  1  0  0  0  0
  2  3  2  0  0  0  0
  2 47  1  0  0  0  0
  3  4  1  0  0  0  0
  3 30  1  0  0  0  0
  4  5  1  0  0  0  0
  4  6  1  0  0  0  0
  4  7  1  0  0  0  0
  7  8  1  0  0  0  0
  7  9  1  0  0  0  0
  7 10  1  0  0  0  0
 10 11  1  0  0  0  0
 10 12  1  0  0  0  0
 10 13  1  0  0  0  0
 13 14  2  0  0  0  0
 13 30  1  0  0  0  0
 14 15  1  0  0  0  0
 14 19  1  0  0  0  0
 15 16  1  0  0  0  0
 15 17  1  0  0  0  0
 15 18  1  0  0  0  0
 19 20  1  0  0  0  0
 19 28  1  0  0  0  0
 20 21  1  0  0  0  0
 20 22  1  0  0  0  0
 22 23  1  0  0  0  0
 22 24  1  0  0  0  0
 24 25  1  0  0  0  0
 24 26  1  0  0  0  0
 26 27  1  0  0  0  0
 26 28  1  0  0  0  0
 28 29  1  0  0  0  0
 29 30  1  0  0  0  0
 30 31  1  0  0  0  0
 31 32  1  0  0  0  0
 32 33  1  0  0  0  0
 32 47  1  0  0  0  0
 33 34  1  0  0  0  0
 33 35  1  0  0  0  0
 35 36  1  0  0  0  0
 35 37  1  0  0  0  0
 37 38  1  0  0  0  0
 37 46  1  0  0  0  0
 38 39  1  0  0  0  0
 38 40  1  0  0  0  0
 40 41  1  0  0  0  0
 40 42  1  0  0  0  0
 42 43  1  0  0  0  0
 42 44  1  0  0  0  0
 44 45  1  0  0  0  0
 44 46  1  0  0  0  0
 46 47  1  0  0  0  0
M  END
$$$$
