
  --CCDC--092525    3D                              

 19 24  0  0  0  0  0  0  0  0999 V2000
   -0.0798    0.1114    0.0059 H      0
   -1.6253    0.4169    0.0048 Si     0
   -3.2226    0.1095    1.2804 Cl     0
   -3.4457    1.1523   -0.6428 Cl     0
   -3.0675   -0.9218   -0.6227 Cl     0
    0.6502    1.8880    0.0014 Mn     0
   -0.5836    2.2485    1.8953 C      0
   -1.1972    2.4114    2.8412 O      0
    1.4243    0.7030    1.8027 C      0
    1.8096    0.1132    2.6993 O      0
    1.8838    2.0789   -1.7814 C      0
    2.6188    2.5288   -0.6674 C      0
    1.8996    3.6632   -0.1423 C      0
    0.4986    3.9106   -0.7180 C      0
   -0.5864    4.9209   -0.4187 C      0
    0.7490    2.9601   -1.8928 C      0
   -1.0887    5.2303   -1.3326 H      0
   -0.1682    5.8040    0.0583 H      0
   -1.3366    4.5003    0.2486 H      0
  1  2  1
  2  3  1
  2  4  1
  2  5  1
  2  6  1
  1  6  1
  6  7  1
  7  8  3
  6  9  1
  9 10  3
  6 11  1
 11 12  4
  6 12  1
 12 13  4
  6 13  1
 13 14  4
  6 14  1
 14 15  1
 14 16  4
  6 16  1
 11 16  4
 15 17  1
 15 18  1
 15 19  1
M  END
$$$$
