
 OpenBabel09252515313D

 62 63  0  0  0  0  0  0  0  0999 V2000
    0.9075    0.0185   -0.0331 C   0  0  0  0  0  0  0  0  0  0  0  0
    0.2008    1.7195   -1.0826 Pt  0  0  0  0  0  0  0  0  0  0  0  0
    1.9318    1.6838   -2.3061 C   0  0  0  0  0  0  0  0  0  0  0  0
   -0.7986    0.4548   -2.4596 C   0  0  0  0  0  0  0  0  0  0  0  0
   -0.4892    3.3804   -2.1074 N   0  0  0  0  0  0  0  0  0  0  0  0
   -1.7979    3.5922   -3.2203 N   0  0  0  0  0  0  0  0  0  0  0  0
   -1.5533    5.3025   -3.6211 C   0  0  0  0  0  0  0  0  0  0  0  0
   -2.4230    6.1310   -4.5252 C   0  0  0  0  0  0  0  0  0  0  0  0
   -3.3295    6.9884   -3.6232 C   0  0  0  0  0  0  0  0  0  0  0  0
   -2.4383    7.7631   -2.6462 C   0  0  0  0  0  0  0  0  0  0  0  0
   -1.5651    8.6509   -3.5078 C   0  0  0  0  0  0  0  0  0  0  0  0
   -0.3405    7.9516   -4.0683 C   0  0  0  0  0  0  0  0  0  0  0  0
    0.2943    7.0081   -3.0556 C   0  0  0  0  0  0  0  0  0  0  0  0
   -0.4488    5.6776   -2.9502 C   0  0  0  0  0  0  0  0  0  0  0  0
    0.1096    4.6262   -2.0916 N   0  0  0  0  0  0  0  0  0  0  0  0
   -1.7833    1.7605    0.3198 P   0  0  0  0  0  4  0  0  0  0  0  0
   -1.3766    1.0866    1.9718 C   0  0  0  0  0  0  0  0  0  0  0  0
   -2.3728    3.4844    0.4924 C   0  0  0  0  0  0  0  0  0  0  0  0
   -3.0947    0.7415   -0.4488 C   0  0  0  0  0  0  0  0  0  0  0  0
    1.3463    3.1692    0.4957 P   0  0  0  0  0  4  0  0  0  0  0  0
    0.7014    2.8662    2.1813 C   0  0  0  0  0  0  0  0  0  0  0  0
    3.1414    2.8158    0.4567 C   0  0  0  0  0  0  0  0  0  0  0  0
    1.0587    4.9175    0.0377 C   0  0  0  0  0  0  0  0  0  0  0  0
    0.5508   -0.8695   -0.5117 H   0  0  0  0  0  0  0  0  0  0  0  0
    0.5508    0.0480    0.9753 H   0  0  0  0  0  0  0  0  0  0  0  0
    1.9775    0.0185   -0.0331 H   0  0  0  0  0  0  0  0  0  0  0  0
    2.2764    0.6758   -2.4070 H   0  0  0  0  0  0  0  0  0  0  0  0
    1.6940    2.0778   -3.2720 H   0  0  0  0  0  0  0  0  0  0  0  0
    2.6985    2.2796   -1.8567 H   0  0  0  0  0  0  0  0  0  0  0  0
   -1.8482    0.6614   -2.4367 H   0  0  0  0  0  0  0  0  0  0  0  0
   -0.4215    0.6320   -3.4451 H   0  0  0  0  0  0  0  0  0  0  0  0
   -0.6305   -0.5675   -2.1918 H   0  0  0  0  0  0  0  0  0  0  0  0
   -1.8273    6.7496   -5.1635 H   0  0  0  0  0  0  0  0  0  0  0  0
   -3.0191    5.4943   -5.1451 H   0  0  0  0  0  0  0  0  0  0  0  0
   -4.0123    6.3644   -3.0853 H   0  0  0  0  0  0  0  0  0  0  0  0
   -3.8919    7.6741   -4.2220 H   0  0  0  0  0  0  0  0  0  0  0  0
   -1.8546    7.1057   -2.0363 H   0  0  0  0  0  0  0  0  0  0  0  0
   -3.0357    8.3554   -1.9849 H   0  0  0  0  0  0  0  0  0  0  0  0
   -2.1599    8.9536   -4.3442 H   0  0  0  0  0  0  0  0  0  0  0  0
   -1.2381    9.4794   -2.9149 H   0  0  0  0  0  0  0  0  0  0  0  0
   -0.6503    7.3700   -4.9114 H   0  0  0  0  0  0  0  0  0  0  0  0
    0.3801    8.6907   -4.3502 H   0  0  0  0  0  0  0  0  0  0  0  0
    1.2904    6.7991   -3.3856 H   0  0  0  0  0  0  0  0  0  0  0  0
    0.2891    7.4810   -2.0957 H   0  0  0  0  0  0  0  0  0  0  0  0
   -0.6099    1.6824    2.4212 H   0  0  0  0  0  0  0  0  0  0  0  0
   -2.2503    1.1046    2.5893 H   0  0  0  0  0  0  0  0  0  0  0  0
   -1.0320    0.0787    1.8709 H   0  0  0  0  0  0  0  0  0  0  0  0
   -2.6105    3.8784   -0.4736 H   0  0  0  0  0  0  0  0  0  0  0  0
   -3.2464    3.5024    1.1099 H   0  0  0  0  0  0  0  0  0  0  0  0
   -1.6060    4.0802    0.9418 H   0  0  0  0  0  0  0  0  0  0  0  0
   -3.3325    1.1356   -1.4148 H   0  0  0  0  0  0  0  0  0  0  0  0
   -2.7500   -0.2664   -0.5498 H   0  0  0  0  0  0  0  0  0  0  0  0
   -3.9683    0.7596    0.1687 H   0  0  0  0  0  0  0  0  0  0  0  0
    0.8696    1.8440    2.4491 H   0  0  0  0  0  0  0  0  0  0  0  0
    1.2058    3.5045    2.8763 H   0  0  0  0  0  0  0  0  0  0  0  0
   -0.3482    3.0729    2.2041 H   0  0  0  0  0  0  0  0  0  0  0  0
    3.5185    2.9930   -0.5289 H   0  0  0  0  0  0  0  0  0  0  0  0
    3.6458    3.4541    1.1517 H   0  0  0  0  0  0  0  0  0  0  0  0
    3.3095    1.7935    0.7245 H   0  0  0  0  0  0  0  0  0  0  0  0
    1.4358    5.0947   -0.9478 H   0  0  0  0  0  0  0  0  0  0  0  0
    0.0091    5.1242    0.0606 H   0  0  0  0  0  0  0  0  0  0  0  0
    1.5631    5.5559    0.7327 H   0  0  0  0  0  0  0  0  0  0  0  0
  1  2  1  0  0  0  0
  1 24  1  0  0  0  0
  1 25  1  0  0  0  0
  1 26  1  0  0  0  0
  2  3  1  0  0  0  0
  2  4  1  0  0  0  0
  2  5  1  0  0  0  0
  2 16  1  0  0  0  0
  2 20  1  0  0  0  0
  3 27  1  0  0  0  0
  3 28  1  0  0  0  0
  3 29  1  0  0  0  0
  4 30  1  0  0  0  0
  4 31  1  0  0  0  0
  4 32  1  0  0  0  0
  5  6  1  0  0  0  0
  5 15  1  0  0  0  0
  6  7  2  0  0  0  0
  7  8  1  0  0  0  0
  7 14  1  0  0  0  0
  8  9  1  0  0  0  0
  8 33  1  0  0  0  0
  8 34  1  0  0  0  0
  9 10  1  0  0  0  0
  9 35  1  0  0  0  0
  9 36  1  0  0  0  0
 10 11  1  0  0  0  0
 10 37  1  0  0  0  0
 10 38  1  0  0  0  0
 11 12  1  0  0  0  0
 11 39  1  0  0  0  0
 11 40  1  0  0  0  0
 12 13  1  0  0  0  0
 12 41  1  0  0  0  0
 12 42  1  0  0  0  0
 13 14  1  0  0  0  0
 13 43  1  0  0  0  0
 13 44  1  0  0  0  0
 14 15  2  0  0  0  0
 16 17  1  0  0  0  0
 16 18  1  0  0  0  0
 16 19  1  0  0  0  0
 17 45  1  0  0  0  0
 17 46  1  0  0  0  0
 17 47  1  0  0  0  0
 18 48  1  0  0  0  0
 18 49  1  0  0  0  0
 18 50  1  0  0  0  0
 19 51  1  0  0  0  0
 19 52  1  0  0  0  0
 19 53  1  0  0  0  0
 20 21  1  0  0  0  0
 20 22  1  0  0  0  0
 20 23  1  0  0  0  0
 21 54  1  0  0  0  0
 21 55  1  0  0  0  0
 21 56  1  0  0  0  0
 22 57  1  0  0  0  0
 22 58  1  0  0  0  0
 22 59  1  0  0  0  0
 23 60  1  0  0  0  0
 23 61  1  0  0  0  0
 23 62  1  0  0  0  0
M  END
$$$$
