
  --CCDC--092525    3D                              

 57 64  0  0  0  0  0  0  0  0999 V2000
   -0.0744    0.0522   -0.8013 C      0
    1.3283    0.0258   -1.1953 C      0
    2.4385   -0.0083   -1.4598 N      0
    4.5928   -0.0166   -1.9042 Fe     1
    6.7318   -0.0822   -2.4084 N      0
    7.8404   -0.1162   -2.6698 C      0
    9.2544   -0.1089   -3.0150 C      0
    4.8720    1.0171    0.0269 C      0
    4.2284    0.3449    1.1070 N      0
    4.5737   -1.0429    1.4056 C      0
    4.1237   -1.9249    0.3310 N      0
    3.0369   -2.8051    0.2706 C      0
    3.0904   -3.4151   -0.9281 C      0
    4.2099   -2.9135   -1.6074 N      0
    4.7477   -3.2975   -2.9199 C      0
    4.8126   -2.2390   -3.9408 N      0
    5.5828   -2.2248   -5.1127 C      0
    5.3797   -1.0436   -5.7163 C      0
    4.4853   -0.3118   -4.9273 N      0
    4.0326    1.0607   -5.1793 C      0
    3.6466    1.8799   -4.0262 N      0
    2.5056    2.6792   -3.8780 C      0
    2.6081    3.3155   -2.7018 C      0
    3.8079    2.8962   -2.1196 N      0
    4.4236    3.2978   -0.8625 C      0
    4.1672    2.2493    0.1153 N      0
    3.2550    2.3152    1.1716 C      0
    3.2924    1.1316    1.7896 C      0
    4.5014    1.9438   -2.8978 C      0
    4.0728   -1.0363   -3.7793 C      0
    4.8807   -1.9189   -0.8582 C      0
   -0.5677    0.9361   -1.2021 H      0
   -0.1697    0.0764    0.2835 H      0
   -0.5995   -0.8277   -1.1694 H      0
    9.6413   -1.1213   -3.1113 H      0
    9.8284    0.4014   -2.2457 H      0
    9.4156    0.4095   -3.9582 H      0
    5.6605   -1.1319    1.5193 H      0
    4.1065   -1.3439    2.3522 H      0
    2.3005   -2.9695    1.0526 H      0
    2.4021   -4.1715   -1.2929 H      0
    5.7640   -3.6852   -2.7665 H      0
    4.1476   -4.1275   -3.3156 H      0
    6.2356   -3.0158   -5.4690 H      0
    5.8399   -0.7078   -6.6413 H      0
    4.8517    1.5790   -5.6933 H      0
    3.1932    1.0282   -5.8834 H      0
    1.6994    2.7891   -4.5937 H      0
    1.9071    4.0292   -2.2836 H      0
    5.5026    3.4442   -0.9984 H      0
    3.9874    4.2425   -0.5159 H      0
    2.6226    3.1604    1.4229 H      0
    2.6967    0.8342    2.6465 H      0
    5.9404    1.1560    0.2438 H      0
    5.5076    2.3005   -3.1747 H      0
    2.9923   -1.2476   -3.8230 H      0
    5.9397   -2.1683   -0.6881 H      0
  1  2  1
  2  3  3
  3  4  1
  4  5  1
  5  6  3
  6  7  1
  4  8  1
  8  9  1
  9 10  1
 10 11  1
 11 12  1
 12 13  2
 13 14  1
 14 15  1
 15 16  1
 16 17  1
 17 18  2
 18 19  1
 19 20  1
 20 21  1
 21 22  1
 22 23  2
 23 24  1
 24 25  1
 25 26  1
  8 26  1
 26 27  1
 27 28  2
  9 28  1
 24 29  1
  4 29  1
 21 29  1
 19 30  1
  4 30  1
 16 30  1
 14 31  1
  4 31  1
 11 31  1
  1 32  1
  1 33  1
  1 34  1
  7 35  1
  7 36  1
  7 37  1
 10 38  1
 10 39  1
 12 40  1
 13 41  1
 15 42  1
 15 43  1
 17 44  1
 18 45  1
 20 46  1
 20 47  1
 22 48  1
 23 49  1
 25 50  1
 25 51  1
 27 52  1
 28 53  1
  8 54  1
 29 55  1
 30 56  1
 31 57  1
M  CHG  1   4   3
M  END
$$$$
