
 OpenBabel09252513473D

 24 29  0  0  1  0  0  0  0  0999 V2000
    1.0893    0.0302   -0.0334 H   0  0  0  0  0  0  0  0  0  0  0  0
    2.1593    0.0302   -0.0334 C   0  0  0  0  0  0  0  0  0  0  0  0
    2.5160   -0.2369   -1.0062 H   0  0  0  0  0  0  0  0  0  0  0  0
    2.5160    1.0062    0.2217 H   0  0  0  0  0  0  0  0  0  0  0  0
    2.6660   -0.9770    0.9861 C   0  0  2  0  0  0  0  0  0  0  0  0
    3.6617   -0.8791    2.0842 C   0  0  2  0  0  0  0  0  0  0  0  0
    3.8558    0.1636    2.2256 H   0  0  0  0  0  0  0  0  0  0  0  0
    4.2374   -2.3049    2.2159 C   0  0  2  0  0  0  0  0  0  0  0  0
    5.2810   -2.0869    2.1240 H   0  0  0  0  0  0  0  0  0  0  0  0
    3.1473   -3.2318    1.6412 C   0  0  2  0  0  0  0  0  0  0  0  0
    3.0110   -4.0171    0.9273 H   0  0  0  0  0  0  0  0  0  0  0  0
    2.0046   -2.2881    1.2106 C   0  0  1  0  0  0  0  0  0  0  0  0
    1.0440   -2.2273    0.7433 H   0  0  0  0  0  0  0  0  0  0  0  0
    3.5095   -3.2958    3.1261 Mn  0  0  0  0  0  0  0  0  0  0  0  0
    2.8019   -5.0209    4.1964 C   0  0  0  0  0  0  0  0  0  0  0  0
    2.4010   -5.9983    4.8028 O   0  0  0  0  0  0  0  0  0  0  0  0
    3.9856   -4.5464    4.8089 C   0  0  0  0  0  0  0  0  0  0  0  0
    4.2553   -5.2549    5.7623 O   0  0  0  0  0  0  0  0  0  0  0  0
    4.0908   -3.0018    4.6963 H   0  0  0  0  0  0  0  0  0  0  0  0
    1.5757   -4.2460    1.8582 Si  0  0  0  0  0  0  0  0  0  0  0  0
   -0.4234   -4.9550    2.0527 Cl  0  0  0  0  0  0  0  0  0  0  0  0
    2.0194   -6.2481    1.2821 Cl  0  0  0  0  0  0  0  0  0  0  0  0
   -0.1595   -4.2306    3.0933 Cl  0  0  0  0  0  0  0  0  0  0  0  0
    1.3384   -3.4614    0.6987 H   0  0  0  0  0  0  0  0  0  0  0  0
  1  2  1  0  0  0  0
  2  3  1  0  0  0  0
  2  4  1  0  0  0  0
  5  2  1  1  0  0  0
  5  6  1  0  0  0  0
  5 12  1  0  0  0  0
  5 14  1  0  0  0  0
  6  7  1  1  0  0  0
  6  8  1  0  0  0  0
  6 14  1  0  0  0  0
  8  9  1  6  0  0  0
  8 10  1  0  0  0  0
  8 14  1  0  0  0  0
 10 11  1  6  0  0  0
 10 12  1  0  0  0  0
 10 14  1  0  0  0  0
 12 13  1  6  0  0  0
 12 14  1  0  0  0  0
 14 15  1  0  0  0  0
 14 17  1  0  0  0  0
 14 19  1  0  0  0  0
 14 20  1  0  0  0  0
 15 16  3  0  0  0  0
 17 18  3  0  0  0  0
 19 20  1  0  0  0  0
 20 21  1  0  0  0  0
 20 22  1  0  0  0  0
 20 23  1  0  0  0  0
 20 24  1  0  0  0  0
M  END
$$$$
