
     RDKit          3D

  0  0  0  0  0  0  0  0  0  0999 V3000
M  V30 BEGIN CTAB
M  V30 COUNTS 47 52 0 0 0
M  V30 BEGIN ATOM
M  V30 1 C 1.662579 -0.537219 0.890572 0
M  V30 2 N 0.619996 -1.134579 1.351199 0
M  V30 3 C -0.150851 -1.841675 2.297361 0
M  V30 4 C -1.150576 -2.814809 1.656469 0
M  V30 5 C -2.332721 -2.172345 1.029176 0
M  V30 6 N -2.026422 -1.315492 -0.070489 0
M  V30 7 C -2.188542 -0.434520 -0.993200 0
M  V30 8 C -1.883262 0.429325 -2.129007 0
M  V30 9 C -3.208048 0.340340 -0.156144 0
M  V30 10 C -4.460198 0.871381 -0.546069 0
M  V30 11 C -5.259444 1.580090 0.365453 0
M  V30 12 C -4.765966 1.730076 1.643418 0
M  V30 13 C -3.563478 1.256440 2.121864 0
M  V30 14 C -2.745630 0.545430 1.226837 0
M  V30 15 O -1.539942 0.113017 1.779281 0
M  V30 16 Cu -0.500211 -0.849645 0.096967 0 CFG=2 VAL=4
M  V30 17 O -0.035776 0.323562 -0.726283 0
M  V30 18 C 1.209319 0.622156 -1.181222 0
M  V30 19 C 1.619463 1.290604 -2.352798 0
M  V30 20 C 2.976667 1.450777 -2.553440 0
M  V30 21 C 3.863128 0.962647 -1.622571 0
M  V30 22 C 5.197340 1.132926 -1.853556 0
M  V30 23 C 6.211762 0.696895 -1.018876 0
M  V30 24 C 5.828903 0.031483 0.148606 0
M  V30 25 C 4.485604 -0.149982 0.399225 0
M  V30 26 C 3.517786 0.304591 -0.465053 0
M  V30 27 C 2.160948 0.159450 -0.290703 0
M  V30 28 H 2.371914 -0.529704 1.654492 0
M  V30 29 H -0.771973 -1.137773 2.881094 0
M  V30 30 H 0.336994 -2.458152 3.073700 0
M  V30 31 H -1.515067 -3.462397 2.438507 0
M  V30 32 H -0.599537 -3.398899 0.902170 0
M  V30 33 H -3.074233 -1.783665 1.750362 0
M  V30 34 H -2.881040 -3.053407 0.559199 0
M  V30 35 H -1.510553 1.418170 -2.012750 0
M  V30 36 H -1.272215 -0.048199 -2.933419 0
M  V30 37 H -2.881370 0.539991 -2.656433 0
M  V30 38 H -4.630521 0.658042 -1.611680 0
M  V30 39 H -6.165702 1.919875 -0.054236 0
M  V30 40 H -5.400597 2.277582 2.325312 0
M  V30 41 H -3.183418 1.376358 3.117421 0
M  V30 42 H 0.849588 1.639764 -3.021687 0
M  V30 43 H 3.201333 1.959930 -3.451930 0
M  V30 44 H 5.539815 1.634677 -2.731745 0
M  V30 45 H 7.250290 0.849370 -1.234062 0
M  V30 46 H 6.578007 -0.330970 0.836920 0
M  V30 47 H 4.215856 -0.661517 1.286060 0
M  V30 END ATOM
M  V30 BEGIN BOND
M  V30 1 2 1 2
M  V30 2 1 2 3
M  V30 3 1 3 4
M  V30 4 1 4 5
M  V30 5 1 5 6
M  V30 6 2 6 7
M  V30 7 1 7 8
M  V30 8 1 7 9
M  V30 9 2 9 10
M  V30 10 1 10 11
M  V30 11 2 11 12
M  V30 12 1 12 13
M  V30 13 2 13 14
M  V30 14 1 14 15
M  V30 15 1 15 16
M  V30 16 1 16 17
M  V30 17 1 17 18
M  V30 18 2 18 19
M  V30 19 1 19 20
M  V30 20 2 20 21
M  V30 21 1 21 22
M  V30 22 2 22 23
M  V30 23 1 23 24
M  V30 24 2 24 25
M  V30 25 1 25 26
M  V30 26 2 26 27
M  V30 27 1 27 1
M  V30 28 9 2 16
M  V30 29 1 27 18
M  V30 30 9 6 16
M  V30 31 1 26 21
M  V30 32 1 14 9
M  V30 33 1 1 28
M  V30 34 1 3 29
M  V30 35 1 3 30
M  V30 36 1 4 31
M  V30 37 1 4 32
M  V30 38 1 5 33
M  V30 39 1 5 34
M  V30 40 1 8 35
M  V30 41 1 8 36
M  V30 42 1 8 37
M  V30 43 1 10 38
M  V30 44 1 11 39
M  V30 45 1 12 40
M  V30 46 1 13 41
M  V30 47 1 19 42
M  V30 48 1 20 43
M  V30 49 1 22 44
M  V30 50 1 23 45
M  V30 51 1 24 46
M  V30 52 1 25 47
M  V30 END BOND
M  V30 END CTAB
M  END
