
 OpenBabel09252515123D

 28 28  0  0  0  0  0  0  0  0999 V2000
    1.3446   -0.2454    0.0589 C   0  0  0  0  0  0  0  0  0  0  0  0
    0.6351   -0.1243    1.4053 C   0  0  0  0  0  0  0  0  0  0  0  0
    1.1188    1.0508    2.2590 C   0  0  0  0  0  0  0  0  0  0  0  0
    0.7725    2.4057    1.7880 C   0  0  0  0  0  0  0  0  0  0  0  0
   -0.0551    2.7227    0.7774 C   0  0  0  0  0  0  0  0  0  0  0  0
   -0.3210    4.1032    0.3440 C   0  0  0  0  0  0  0  0  0  0  0  0
    0.6890    5.0762    0.2828 C   0  0  0  0  0  0  0  0  0  0  0  0
    0.4014    6.3681   -0.1637 C   0  0  0  0  0  0  0  0  0  0  0  0
   -0.8910    6.6832   -0.5627 C   0  0  0  0  0  0  0  0  0  0  0  0
   -1.1667    7.9220   -0.9902 F   0  0  0  0  0  0  0  0  0  0  0  0
   -1.9002    5.7292   -0.5319 C   0  0  0  0  0  0  0  0  0  0  0  0
   -1.6139    4.4375   -0.0847 C   0  0  0  0  0  0  0  0  0  0  0  0
    1.8245    0.8594    3.4085 C   0  0  0  0  0  0  0  0  0  0  0  0
    2.1917   -0.4420    3.8634 C   0  0  0  0  0  0  0  0  0  0  0  0
    2.4906   -1.5035    4.2260 N   0  0  0  0  0  0  0  0  0  0  0  0
    2.2336    1.9407    4.2470 C   0  0  0  0  0  0  0  0  0  0  0  0
    2.5554    2.8288    4.9213 N   0  0  0  0  0  0  0  0  0  0  0  0
    1.1361    0.6039   -0.5980 H   0  0  0  0  0  0  0  0  0  0  0  0
    1.0021   -1.1466   -0.4607 H   0  0  0  0  0  0  0  0  0  0  0  0
    2.4292   -0.3175    0.1853 H   0  0  0  0  0  0  0  0  0  0  0  0
   -0.4487   -0.0500    1.2534 H   0  0  0  0  0  0  0  0  0  0  0  0
    0.7679   -1.0790    1.9259 H   0  0  0  0  0  0  0  0  0  0  0  0
    1.2352    3.2382    2.3200 H   0  0  0  0  0  0  0  0  0  0  0  0
   -0.5961    1.9651    0.2183 H   0  0  0  0  0  0  0  0  0  0  0  0
    1.7108    4.8399    0.5706 H   0  0  0  0  0  0  0  0  0  0  0  0
    1.1775    7.1257   -0.2067 H   0  0  0  0  0  0  0  0  0  0  0  0
   -2.9011    5.9947   -0.8560 H   0  0  0  0  0  0  0  0  0  0  0  0
   -2.4113    3.6977   -0.0662 H   0  0  0  0  0  0  0  0  0  0  0  0
  1  2  1  0  0  0  0
  1 18  1  0  0  0  0
  1 19  1  0  0  0  0
  1 20  1  0  0  0  0
  2  3  1  0  0  0  0
  2 21  1  0  0  0  0
  2 22  1  0  0  0  0
  3  4  1  0  0  0  0
  3 13  2  0  0  0  0
  4  5  2  0  0  0  0
  4 23  1  0  0  0  0
  5  6  1  0  0  0  0
  5 24  1  0  0  0  0
  6  7  1  0  0  0  0
  6 12  2  0  0  0  0
  7  8  2  0  0  0  0
  7 25  1  0  0  0  0
  8  9  1  0  0  0  0
  8 26  1  0  0  0  0
  9 10  1  0  0  0  0
  9 11  2  0  0  0  0
 11 12  1  0  0  0  0
 11 27  1  0  0  0  0
 12 28  1  0  0  0  0
 13 14  1  0  0  0  0
 13 16  1  0  0  0  0
 14 15  3  0  0  0  0
 16 17  3  0  0  0  0
M  END
$$$$
