
  --CCDC--092525    3D                              

 75 87  0  0  0  0  0  0  0  0999 V2000
   -0.5285    3.1267    2.2719 Cl     0
    1.6575    2.5749    0.7283 Zr     0
    0.1459    0.3007    0.9470 Cl     0
    2.4819    0.9735    2.3117 C      0
    2.1003    2.3807    3.0510 C      0
    3.1356    3.3923    2.3763 C      0
    3.3716    4.7200    2.6837 C      0
    4.3588    5.4015    1.9754 C      0
    5.0987    4.7823    0.9823 C      0
    4.9021    3.4420    0.6594 C      0
    3.9326    2.7307    1.3418 C      0
    3.5342    1.1985    1.1078 C      0
    3.8538    0.0959   -0.3700 Si     0
    5.6468   -0.4675   -0.3668 C      0
    2.7851   -1.4497   -0.3210 C      0
    3.3663    1.4710   -2.2059 Si     0
    4.8176    2.5275   -2.7641 C      0
    2.8098    0.4672   -3.6943 C      0
    1.9758    2.5837   -1.6283 C      0
    2.1102    4.0900   -1.0430 C      0
    0.7863    4.5648   -0.2484 C      0
   -0.1780    3.3198   -0.5618 C      0
   -1.5164    3.2093   -0.2240 C      0
   -2.2266    2.0875   -0.6507 C      0
   -1.6185    1.0647   -1.3607 C      0
   -0.2504    1.0888   -1.6338 C      0
    0.4680    2.2183   -1.2811 C      0
    0.4905    6.2018    0.6232 Si     0
    1.9135    7.3738    0.2855 C      0
    0.1926    6.1677    2.4707 C      0
   -1.0224    7.0042   -0.1380 C      0
    1.0039    2.5513    4.5724 Si     0
   -0.3261    1.2349    4.7390 C      0
    0.3618    4.2596    5.0152 C      0
    2.1513    2.1672    6.0035 C      0
    3.3474    0.9224    2.9903 H      0
    2.8290    5.2111    3.4833 H      0
    4.5536    6.4430    2.2087 H      0
    5.8542    5.3512    0.4504 H      0
    5.5138    2.9577   -0.0931 H      0
    6.3198    0.3874   -0.3783 H      0
    5.8606   -1.0788   -1.2411 H      0
    5.8640   -1.0579    0.5209 H      0
    1.7601   -1.2282   -0.6045 H      0
    2.7793   -1.8851    0.6760 H      0
    3.1656   -2.1977   -1.0135 H      0
    4.5855    3.0304   -3.7005 H      0
    5.7034    1.9154   -2.9205 H      0
    5.0553    3.2902   -2.0275 H      0
    3.6046   -0.1946   -4.0320 H      0
    2.5388    1.1208   -4.5208 H      0
    1.9435   -0.1425   -3.4462 H      0
    3.0925    4.5112   -0.7835 H      0
   -2.0177    4.0014    0.3227 H      0
   -3.2851    2.0153   -0.4235 H      0
   -2.2122    0.2176   -1.6882 H      0
    0.2301    0.2602   -2.1434 H      0
    2.8701    6.8886    0.4550 H      0
    1.8568    8.2443    0.9357 H      0
    1.8891    7.7204   -0.7455 H      0
   -0.7601    5.6994    2.7058 H      0
    0.1721    7.1788    2.8718 H      0
    0.9805    5.6215    2.9762 H      0
   -0.8938    7.1295   -1.2111 H      0
   -1.1999    7.9847    0.2988 H      0
   -1.9076    6.3938    0.0283 H      0
   -0.4523    0.9550    5.7828 H      0
   -0.0475    0.3404    4.1858 H      0
   -1.2910    1.5701    4.3685 H      0
   -0.5190    4.5316    4.4405 H      0
    1.1269    5.0136    4.8423 H      0
    0.0885    4.2973    6.0676 H      0
    2.5732    1.1694    5.9024 H      0
    1.6169    2.2149    6.9499 H      0
    2.9724    2.8800    6.0416 H      0
  1  2  1
  2  3  1
  2  4  1
  4  5  1
  2  5  1
  5  6  1
  2  6  1
  6  7  4
  7  8  4
  8  9  4
  9 10  4
 10 11  4
  2 11  1
  6 11  4
 11 12  1
  2 12  1
  4 12  1
 12 13  1
 13 14  1
 13 15  1
 13 16  1
 16 17  1
 16 18  1
 16 19  1
  2 19  1
 19 20  1
  2 20  1
 20 21  1
  2 21  1
 21 22  1
  2 22  1
 22 23  4
 23 24  4
 24 25  4
 25 26  4
 26 27  4
  2 27  1
 19 27  1
 22 27  4
 21 28  1
 28 29  1
 28 30  1
 28 31  1
  5 32  1
 32 33  1
 32 34  1
 32 35  1
  4 36  1
  7 37  1
  8 38  1
  9 39  1
 10 40  1
 14 41  1
 14 42  1
 14 43  1
 15 44  1
 15 45  1
 15 46  1
 17 47  1
 17 48  1
 17 49  1
 18 50  1
 18 51  1
 18 52  1
 20 53  1
 23 54  1
 24 55  1
 25 56  1
 26 57  1
 29 58  1
 29 59  1
 29 60  1
 30 61  1
 30 62  1
 30 63  1
 31 64  1
 31 65  1
 31 66  1
 33 67  1
 33 68  1
 33 69  1
 34 70  1
 34 71  1
 34 72  1
 35 73  1
 35 74  1
 35 75  1
M  END
$$$$
