
 OpenBabel08122501073D

 80 84  0  0  0  0  0  0  0  0999 V2000
    0.9448    0.0670    0.0497 Cl  0  0  0  0  0  0  0  0  0  0  0  0
    3.4248    0.0670    0.0497 Ru  0  0  0  0  0  0  0  0  0  0  0  0
    2.5237    0.7691    0.6692 C   0  0  0  0  0  0  0  0  0  0  0  0
    1.4521    0.0984    1.4057 C   0  0  0  0  0  0  0  0  0  0  0  0
    0.4646    0.8153    2.0846 C   0  0  0  0  0  0  0  0  0  0  0  0
   -0.5202    0.1438    2.7531 C   0  0  0  0  0  0  0  0  0  0  0  0
   -0.5461   -1.2448    2.7769 C   0  0  0  0  0  0  0  0  0  0  0  0
    0.4154   -1.9781    2.1172 C   0  0  0  0  0  0  0  0  0  0  0  0
    1.4263   -1.3142    1.4234 C   0  0  0  0  0  0  0  0  0  0  0  0
    2.4789   -2.0384    0.7000 C   0  0  0  0  0  0  0  0  0  0  0  0
    3.2475   -2.7620    1.7936 C   0  0  0  0  0  0  0  0  0  0  0  0
    3.4248   -1.3282    0.0497 N   0  0  0  0  0  0  0  0  0  0  0  0
    2.9523   -1.3187   -1.3423 C   0  0  0  0  0  0  0  0  0  0  0  0
    4.6360   -1.6406    0.8220 C   0  0  0  0  0  0  0  0  0  0  0  0
    4.6648    0.0670    2.1974 Cl  0  0  0  0  0  0  0  0  0  0  0  0
    4.5348    0.0670   -1.8729 C   0  0  0  0  0  3  0  0  0  0  0  0
    5.8390   -0.7592   -1.7539 N   0  0  0  0  0  0  0  0  0  0  0  0
    6.1340   -1.1424   -3.2285 C   0  0  0  0  0  0  0  0  0  0  0  0
    4.7422   -1.4234   -3.8328 C   0  0  0  0  0  0  0  0  0  0  0  0
    3.7257   -0.6544   -2.9705 N   0  0  0  0  0  0  0  0  0  0  0  0
    2.2681   -0.6149   -3.1565 C   0  0  0  0  0  0  0  0  0  0  0  0
    1.5252   -1.7773   -3.1027 C   0  0  0  0  0  0  0  0  0  0  0  0
    2.2227   -3.1038   -2.8490 C   0  0  0  0  0  0  0  0  0  0  0  0
    0.2123   -1.7495   -3.2694 C   0  0  0  0  0  0  0  0  0  0  0  0
   -0.4349   -0.6168   -3.4863 C   0  0  0  0  0  0  0  0  0  0  0  0
   -1.9443   -0.6363   -3.6645 C   0  0  0  0  0  0  0  0  0  0  0  0
    0.2448    0.5841   -3.5526 C   0  0  0  0  0  0  0  0  0  0  0  0
    1.6223    0.5910   -3.3883 C   0  0  0  0  0  0  0  0  0  0  0  0
    2.4068    1.8909   -3.4607 C   0  0  0  0  0  0  0  0  0  0  0  0
    6.6060   -1.0963   -0.5460 C   0  0  0  0  0  0  0  0  0  0  0  0
    7.9051   -0.6572   -0.3859 C   0  0  0  0  0  0  0  0  0  0  0  0
    8.5705    0.1412   -1.4950 C   0  0  0  0  0  0  0  0  0  0  0  0
    8.5776   -0.9239    0.7227 C   0  0  0  0  0  0  0  0  0  0  0  0
    8.0348   -1.6100    1.7144 C   0  0  0  0  0  0  0  0  0  0  0  0
    8.8460   -1.8843    2.9702 C   0  0  0  0  0  0  0  0  0  0  0  0
    6.7391   -2.0803    1.6225 C   0  0  0  0  0  0  0  0  0  0  0  0
    6.0072   -1.8243    0.4721 C   0  0  0  0  0  0  0  0  0  0  0  0
    4.5809   -2.3301    0.3301 C   0  0  0  0  0  0  0  0  0  0  0  0
    2.5654    1.8379    0.6407 H   0  0  0  0  0  0  0  0  0  0  0  0
    0.4789    1.8852    2.0814 H   0  0  0  0  0  0  0  0  0  0  0  0
   -1.2813    0.6950    3.2648 H   0  0  0  0  0  0  0  0  0  0  0  0
   -1.3215   -1.7504    3.3137 H   0  0  0  0  0  0  0  0  0  0  0  0
    0.3866   -3.0475    2.1369 H   0  0  0  0  0  0  0  0  0  0  0  0
    1.9938   -2.6561   -0.0267 H   0  0  0  0  0  0  0  0  0  0  0  0
    2.5790   -3.3920    2.3423 H   0  0  0  0  0  0  0  0  0  0  0  0
    4.0186   -3.3585    1.3527 H   0  0  0  0  0  0  0  0  0  0  0  0
    3.6860   -2.0448    2.4557 H   0  0  0  0  0  0  0  0  0  0  0  0
    3.3769   -1.6149   -0.9280 H   0  0  0  0  0  0  0  0  0  0  0  0
    3.5573   -0.6513   -1.9198 H   0  0  0  0  0  0  0  0  0  0  0  0
    3.0219   -2.3058   -1.7493 H   0  0  0  0  0  0  0  0  0  0  0  0
    1.9338   -0.9921   -1.3709 H   0  0  0  0  0  0  0  0  0  0  0  0
    4.7813   -2.7004    0.8442 H   0  0  0  0  0  0  0  0  0  0  0  0
    5.4822   -1.1741    0.3624 H   0  0  0  0  0  0  0  0  0  0  0  0
    4.5260   -1.2746    1.8214 H   0  0  0  0  0  0  0  0  0  0  0  0
    6.7929   -1.9814   -3.3098 H   0  0  0  0  0  0  0  0  0  0  0  0
    6.6143   -0.3354   -3.7414 H   0  0  0  0  0  0  0  0  0  0  0  0
    4.5285   -2.4719   -3.8388 H   0  0  0  0  0  0  0  0  0  0  0  0
    4.7028   -1.0793   -4.8452 H   0  0  0  0  0  0  0  0  0  0  0  0
    1.8354   -3.5451   -1.9545 H   0  0  0  0  0  0  0  0  0  0  0  0
    2.0494   -3.7616   -3.6751 H   0  0  0  0  0  0  0  0  0  0  0  0
    3.2741   -2.9387   -2.7390 H   0  0  0  0  0  0  0  0  0  0  0  0
   -0.3387   -2.6658   -3.2278 H   0  0  0  0  0  0  0  0  0  0  0  0
   -2.1961   -1.2475   -4.5059 H   0  0  0  0  0  0  0  0  0  0  0  0
   -2.4023   -1.0357   -2.7838 H   0  0  0  0  0  0  0  0  0  0  0  0
   -2.2969    0.3603   -3.8294 H   0  0  0  0  0  0  0  0  0  0  0  0
   -0.2844    1.4973   -3.7284 H   0  0  0  0  0  0  0  0  0  0  0  0
    2.2661    2.3393   -4.4220 H   0  0  0  0  0  0  0  0  0  0  0  0
    2.0598    2.5596   -2.7010 H   0  0  0  0  0  0  0  0  0  0  0  0
    3.4467    1.6887   -3.3102 H   0  0  0  0  0  0  0  0  0  0  0  0
    8.8526    1.1035   -1.1217 H   0  0  0  0  0  0  0  0  0  0  0  0
    9.4415   -0.3786   -1.8355 H   0  0  0  0  0  0  0  0  0  0  0  0
    7.8858    0.2609   -2.3085 H   0  0  0  0  0  0  0  0  0  0  0  0
    9.5849   -0.5758    0.8186 H   0  0  0  0  0  0  0  0  0  0  0  0
    9.7223   -2.4424    2.7140 H   0  0  0  0  0  0  0  0  0  0  0  0
    9.1328   -0.9564    3.4194 H   0  0  0  0  0  0  0  0  0  0  0  0
    8.2541   -2.4472    3.6614 H   0  0  0  0  0  0  0  0  0  0  0  0
    6.3055   -2.6349    2.4283 H   0  0  0  0  0  0  0  0  0  0  0  0
    4.5724   -3.3977    0.4010 H   0  0  0  0  0  0  0  0  0  0  0  0
    3.9764   -1.9160    1.1099 H   0  0  0  0  0  0  0  0  0  0  0  0
    4.1899   -2.0326   -0.6204 H   0  0  0  0  0  0  0  0  0  0  0  0
  1  2  1  0  0  0  0
  2  3  2  0  0  0  0
  2 12  1  0  0  0  0
  2 15  1  0  0  0  0
  2 16  1  0  0  0  0
  3  4  1  0  0  0  0
  3 39  1  0  0  0  0
  4  5  1  0  0  0  0
  4  9  2  0  0  0  0
  5  6  2  0  0  0  0
  5 40  1  0  0  0  0
  6  7  1  0  0  0  0
  6 41  1  0  0  0  0
  7  8  2  0  0  0  0
  7 42  1  0  0  0  0
  8  9  1  0  0  0  0
  8 43  1  0  0  0  0
  9 10  1  0  0  0  0
 10 11  1  0  0  0  0
 10 12  1  0  0  0  0
 10 44  1  0  0  0  0
 11 45  1  0  0  0  0
 11 46  1  0  0  0  0
 11 47  1  0  0  0  0
 12 13  1  0  0  0  0
 12 14  1  0  0  0  0
 12 48  1  0  0  0  0
 13 49  1  0  0  0  0
 13 50  1  0  0  0  0
 13 51  1  0  0  0  0
 14 52  1  0  0  0  0
 14 53  1  0  0  0  0
 14 54  1  0  0  0  0
 16 17  1  0  0  0  0
 16 20  1  0  0  0  0
 17 18  1  0  0  0  0
 17 30  1  0  0  0  0
 18 19  1  0  0  0  0
 18 55  1  0  0  0  0
 18 56  1  0  0  0  0
 19 20  1  0  0  0  0
 19 57  1  0  0  0  0
 19 58  1  0  0  0  0
 20 21  1  0  0  0  0
 21 22  1  0  0  0  0
 21 28  2  0  0  0  0
 22 23  1  0  0  0  0
 22 24  2  0  0  0  0
 23 59  1  0  0  0  0
 23 60  1  0  0  0  0
 23 61  1  0  0  0  0
 24 25  1  0  0  0  0
 24 62  1  0  0  0  0
 25 26  1  0  0  0  0
 25 27  2  0  0  0  0
 26 63  1  0  0  0  0
 26 64  1  0  0  0  0
 26 65  1  0  0  0  0
 27 28  1  0  0  0  0
 27 66  1  0  0  0  0
 28 29  1  0  0  0  0
 29 67  1  0  0  0  0
 29 68  1  0  0  0  0
 29 69  1  0  0  0  0
 30 31  1  0  0  0  0
 30 37  2  0  0  0  0
 31 32  1  0  0  0  0
 31 33  2  0  0  0  0
 32 70  1  0  0  0  0
 32 71  1  0  0  0  0
 32 72  1  0  0  0  0
 33 34  1  0  0  0  0
 33 73  1  0  0  0  0
 34 35  1  0  0  0  0
 34 36  2  0  0  0  0
 35 74  1  0  0  0  0
 35 75  1  0  0  0  0
 35 76  1  0  0  0  0
 36 37  1  0  0  0  0
 36 77  1  0  0  0  0
 37 38  1  0  0  0  0
 38 78  1  0  0  0  0
 38 79  1  0  0  0  0
 38 80  1  0  0  0  0
M  END
$$$$
