
 OpenBabel08122501073D

 44 49  0  0  0  0  0  0  0  0999 V2000
    1.0789   -0.0530   -0.0310 C   0  0  0  0  0  0  0  0  0  0  0  0
    0.5723    1.3683    0.1520 C   0  0  0  0  0  0  0  0  0  0  0  0
    1.2776    2.5713    1.1093 C   0  0  0  0  0  0  0  0  0  0  0  0
   -0.3126    2.4958   -0.3653 Ir  0  0  0  0  0  0  0  0  0  0  0  0
   -1.6399    1.4630    1.8555 C   0  0  0  0  0  0  0  0  0  0  0  0
   -0.7434    1.7015    0.8605 C   0  0  0  0  0  0  0  0  0  0  0  0
   -1.0455    2.3935   -1.6778 C   0  0  0  0  0  0  0  0  0  0  0  0
   -1.6657    1.3566   -2.3293 C   0  0  0  0  0  0  0  0  0  0  0  0
   -1.6952   -0.0278   -1.7026 C   0  0  0  0  0  0  0  0  0  0  0  0
   -1.1130    3.6289   -2.4210 P   0  0  0  0  0  4  0  0  0  0  0  0
    0.1733    3.5195   -3.7181 C   0  0  0  0  0  0  0  0  0  0  0  0
    0.4253    2.2413   -3.9858 F   0  0  0  0  0  0  0  0  0  0  0  0
   -0.2560    4.1271   -4.8205 F   0  0  0  0  0  0  0  0  0  0  0  0
    1.2854    4.1105   -3.2905 F   0  0  0  0  0  0  0  0  0  0  0  0
   -2.6432    2.8157   -3.0093 C   0  0  0  0  0  0  0  0  0  0  0  0
   -2.3912    1.5376   -3.2771 F   0  0  0  0  0  0  0  0  0  0  0  0
   -3.5781    2.8952   -2.0666 F   0  0  0  0  0  0  0  0  0  0  0  0
   -3.0725    3.4234   -4.1118 F   0  0  0  0  0  0  0  0  0  0  0  0
   -2.2704    1.5768   -3.5710 C   0  0  0  0  0  0  0  0  0  0  0  0
   -2.2464    2.8571   -4.1304 C   0  0  0  0  0  0  0  0  0  0  0  0
   -1.6284    3.8916   -3.4667 C   0  0  0  0  0  0  0  0  0  0  0  0
   -1.0186    3.6721   -2.2309 C   0  0  0  0  0  0  0  0  0  0  0  0
   -0.3406    4.5491   -1.3838 C   0  0  0  0  0  0  0  0  0  0  0  0
    0.1050    3.9406   -0.2692 P   0  0  0  0  0  4  0  0  0  0  0  0
    1.9229    4.0902   -0.1216 C   0  0  0  0  0  0  0  0  0  0  0  0
    2.2580    5.3755   -0.0539 F   0  0  0  0  0  0  0  0  0  0  0  0
    2.3311    3.4670    0.9802 F   0  0  0  0  0  0  0  0  0  0  0  0
    2.5010    3.5368   -1.1839 F   0  0  0  0  0  0  0  0  0  0  0  0
   -0.6402    4.7147    1.2121 C   0  0  0  0  0  0  0  0  0  0  0  0
   -1.9659    4.6487    1.1273 F   0  0  0  0  0  0  0  0  0  0  0  0
   -0.2330    4.0697    2.3017 F   0  0  0  0  0  0  0  0  0  0  0  0
   -0.2634    5.9881    1.2839 F   0  0  0  0  0  0  0  0  0  0  0  0
    0.7223   -0.4418   -0.9619 H   0  0  0  0  0  0  0  0  0  0  0  0
    0.7223   -0.6649    0.7711 H   0  0  0  0  0  0  0  0  0  0  0  0
    2.1489   -0.0530   -0.0310 H   0  0  0  0  0  0  0  0  0  0  0  0
    1.5280    3.4995    1.5790 H   0  0  0  0  0  0  0  0  0  0  0  0
   -2.5278    2.0556    1.9291 H   0  0  0  0  0  0  0  0  0  0  0  0
   -2.1953    0.0189   -0.7578 H   0  0  0  0  0  0  0  0  0  0  0  0
   -2.2174   -0.7012   -2.3497 H   0  0  0  0  0  0  0  0  0  0  0  0
   -2.7477    0.7711   -4.0886 H   0  0  0  0  0  0  0  0  0  0  0  0
   -2.7103    3.0334   -5.0783 H   0  0  0  0  0  0  0  0  0  0  0  0
   -1.6153    4.8697   -3.9004 H   0  0  0  0  0  0  0  0  0  0  0  0
    0.5096    4.9247   -1.9139 H   0  0  0  0  0  0  0  0  0  0  0  0
   -1.0057    5.3387   -1.1022 H   0  0  0  0  0  0  0  0  0  0  0  0
  1  2  1  0  0  0  0
  1 33  1  0  0  0  0
  1 34  1  0  0  0  0
  1 35  1  0  0  0  0
  2  3  2  0  0  0  0
  2  4  1  0  0  0  0
  2  6  1  0  0  0  0
  3  4  1  0  0  0  0
  3 36  1  0  0  0  0
  4  5  1  0  0  0  0
  4  6  1  0  0  0  0
  4  7  1  0  0  0  0
  4 10  1  0  0  0  0
  4 24  1  0  0  0  0
  5  6  2  0  0  0  0
  5 37  1  0  0  0  0
  7  8  1  0  0  0  0
  7 22  2  0  0  0  0
  8  9  1  0  0  0  0
  8 19  2  0  0  0  0
  9 10  1  0  0  0  0
  9 38  1  0  0  0  0
  9 39  1  0  0  0  0
 10 11  1  0  0  0  0
 10 15  1  0  0  0  0
 11 12  1  0  0  0  0
 11 13  1  0  0  0  0
 11 14  1  0  0  0  0
 15 16  1  0  0  0  0
 15 17  1  0  0  0  0
 15 18  1  0  0  0  0
 19 20  1  0  0  0  0
 19 40  1  0  0  0  0
 20 21  2  0  0  0  0
 20 41  1  0  0  0  0
 21 22  1  0  0  0  0
 21 42  1  0  0  0  0
 22 23  1  0  0  0  0
 23 24  1  0  0  0  0
 23 43  1  0  0  0  0
 23 44  1  0  0  0  0
 24 25  1  0  0  0  0
 24 29  1  0  0  0  0
 25 26  1  0  0  0  0
 25 27  1  0  0  0  0
 25 28  1  0  0  0  0
 29 30  1  0  0  0  0
 29 31  1  0  0  0  0
 29 32  1  0  0  0  0
M  END
$$$$
