
  --CCDC--092525    3D                              

 70 72  0  0  0  0  0  0  0  0999 V2000
    0.1729   -1.2576   -1.0831 C      0
    1.5617   -0.8507   -1.2462 C      0
    2.6525   -0.5165   -1.3499 N      0
    4.4870    0.0074   -1.5882 Co     3
    5.2279   -1.6988   -1.1121 C      0
    5.3447   -2.7152    0.0006 C      0
    4.6179   -2.5631    1.1774 C      0
    4.7018   -3.5046    2.1895 C      0
    5.5093   -4.6106    2.0426 C      0
    6.2390   -4.7747    0.8860 C      0
    6.1627   -3.8341   -0.1278 C      0
    5.3310   -1.5701   -2.3017 C      0
    5.6935   -2.3336   -3.5344 C      0
    5.3032   -1.8985   -4.7962 C      0
    5.6591   -2.6020   -5.9348 C      0
    6.3939   -3.7619   -5.8322 C      0
    6.7706   -4.2211   -4.5899 C      0
    6.4240   -3.5156   -3.4496 C      0
    3.5236    1.1494   -3.3577 P      0
    2.1576    0.2310   -4.1136 C      0
    4.6306    1.4340   -4.7666 C      0
    2.7579    2.6992   -2.8160 C      0
    6.2203    1.5394   -1.8333 P      0
    7.3341    0.8731   -3.0970 C      0
    7.2899    1.5762   -0.3752 C      0
    5.8686    3.2659   -2.2767 C      0
    4.0622    1.1235    0.4049 P      0
    2.3647    0.8775    0.9769 C      0
    4.2390    2.9207    0.3519 C      0
    5.0751    0.4977    1.7708 C      0
   -0.5000   -0.5002   -1.4797 H      0
   -0.0648   -1.4051   -0.0317 H      0
   -0.0198   -2.1908   -1.6083 H      0
    3.9756   -1.6976    1.3025 H      0
    4.1282   -3.3713    3.1008 H      0
    5.5714   -5.3489    2.8353 H      0
    6.8786   -5.6433    0.7697 H      0
    6.7580   -3.9679   -1.0235 H      0
    4.6949   -1.0093   -4.8896 H      0
    5.3531   -2.2407   -6.9110 H      0
    6.6718   -4.3126   -6.7248 H      0
    7.3438   -5.1384   -4.5041 H      0
    6.7360   -3.8872   -2.4811 H      0
    2.0616    0.5032   -5.1626 H      0
    1.2090    0.4634   -3.6397 H      0
    2.3150   -0.8431   -4.0591 H      0
    5.4973    0.7812   -4.7260 H      0
    5.0079    2.4488   -4.8158 H      0
    4.1106    1.2279   -5.6998 H      0
    2.4373    2.6187   -1.7794 H      0
    1.8794    2.9189   -3.4190 H      0
    3.4292    3.5478   -2.8862 H      0
    8.2798    0.5780   -2.6472 H      0
    7.5461    1.6263   -3.8529 H      0
    6.9252    0.0021   -3.5982 H      0
    7.1411    0.6852    0.2312 H      0
    7.0946    2.4435    0.2478 H      0
    8.3362    1.6089   -0.6718 H      0
    5.3047    3.3577   -3.1980 H      0
    6.8032    3.8073   -2.4080 H      0
    5.3060    3.7978   -1.5202 H      0
    2.1659   -0.1767    1.1570 H      0
    1.6509    1.2410    0.2406 H      0
    2.1926    1.4146    1.9073 H      0
    3.7303    3.3382   -0.5140 H      0
    5.2820    3.2171    0.3202 H      0
    3.8037    3.3671    1.2435 H      0
    5.8060   -0.2364    1.4492 H      0
    5.6120    1.3161    2.2458 H      0
    4.4551    0.0320    2.5304 H      0
  1  2  1
  2  3  3
  3  4  1
  4  5  1
  5  6  1
  6  7  4
  7  8  4
  8  9  4
  9 10  4
 10 11  4
  6 11  4
  5 12  3
  4 12  1
 12 13  1
 13 14  4
 14 15  4
 15 16  4
 16 17  4
 17 18  4
 13 18  4
  4 19  1
 19 20  1
 19 21  1
 19 22  1
  4 23  1
 23 24  1
 23 25  1
 23 26  1
  4 27  1
 27 28  1
 27 29  1
 27 30  1
  1 31  1
  1 32  1
  1 33  1
  7 34  1
  8 35  1
  9 36  1
 10 37  1
 11 38  1
 14 39  1
 15 40  1
 16 41  1
 17 42  1
 18 43  1
 20 44  1
 20 45  1
 20 46  1
 21 47  1
 21 48  1
 21 49  1
 22 50  1
 22 51  1
 22 52  1
 24 53  1
 24 54  1
 24 55  1
 25 56  1
 25 57  1
 25 58  1
 26 59  1
 26 60  1
 26 61  1
 28 62  1
 28 63  1
 28 64  1
 29 65  1
 29 66  1
 29 67  1
 30 68  1
 30 69  1
 30 70  1
M  CHG  1   4   1
M  END
$$$$
