
  --CCDC--092525    3D                              

 70 72  0  0  0  0  0  0  0  0999 V2000
    0.1242    0.3753   -0.0107 C      0
    1.4904    0.2662   -0.4977 C      0
    2.5605    0.1302   -0.8725 N      0
    4.3621   -0.0988   -1.5035 Co     3
    4.3791    0.2039   -3.4110 C      0
    4.2119   -0.4387   -4.7743 C      0
    3.8762   -1.7817   -4.9000 C      0
    3.5881   -2.3301   -6.1383 C      0
    3.6384   -1.5527   -7.2722 C      0
    4.0383   -0.2398   -7.1761 C      0
    4.3719    0.3013   -5.9446 C      0
    4.5140    1.2675   -2.8488 C      0
    4.5916    2.7513   -3.0495 C      0
    4.0286    3.3686   -4.1619 C      0
    4.0948    4.7436   -4.3174 C      0
    4.7646    5.5146   -3.3957 C      0
    5.3387    4.9222   -2.2957 C      0
    5.2169    3.5564   -2.1051 C      0
    4.6911    0.9394    0.5451 P      0
    3.4982    2.2828    0.7907 C      0
    6.2856    1.7551    0.8053 C      0
    4.4265   -0.1815    1.9434 C      0
    3.6083   -2.2763   -1.2563 P      0
    1.9850   -2.4582   -2.0470 C      0
    3.3421   -2.7380    0.4716 C      0
    4.5983   -3.6137   -1.9621 C      0
    6.5286   -0.8952   -1.2192 P      0
    7.0504   -1.9881   -2.5660 C      0
    6.8327   -1.7365    0.3543 C      0
    7.7775    0.4042   -1.4367 C      0
   -0.3448    1.2916   -0.3555 H      0
    0.0951    0.3620    1.0737 H      0
   -0.4703   -0.4616   -0.3693 H      0
    3.8336   -2.4057   -4.0168 H      0
    3.3158   -3.3766   -6.2124 H      0
    3.3727   -1.9772   -8.2347 H      0
    4.0927    0.3696   -8.0713 H      0
    4.7707    1.3082   -5.8981 H      0
    3.5125    2.7723   -4.9033 H      0
    3.6096    5.2144   -5.1656 H      0
    4.8319    6.5879   -3.5333 H      0
    5.8847    5.5276   -1.5789 H      0
    5.6042    3.1145   -1.1963 H      0
    3.1768    2.7162   -0.1528 H      0
    3.9382    3.0748    1.3937 H      0
    2.6170    1.9387    1.3231 H      0
    6.7181    2.1200   -0.1224 H      0
    7.0048    1.0859    1.2691 H      0
    6.1544    2.6076    1.4675 H      0
    3.3653   -0.3167    2.1280 H      0
    4.8759    0.2290    2.8446 H      0
    4.8546   -1.1635    1.7824 H      0
    1.8810   -3.4435   -2.4956 H      0
    1.8288   -1.7227   -2.8303 H      0
    1.1710   -2.3545   -1.3384 H      0
    2.8046   -1.9571    1.0001 H      0
    4.2766   -2.9266    0.9930 H      0
    2.7426   -3.6433    0.5298 H      0
    5.0221   -3.3458   -2.9260 H      0
    3.9781   -4.4974   -2.1020 H      0
    5.4157   -3.8898   -1.3001 H      0
    6.3959   -1.8890   -3.4302 H      0
    7.1024   -3.0324   -2.2719 H      0
    8.0535   -1.7035   -2.8751 H      0
    6.1314   -2.5561    0.4935 H      0
    7.8378   -2.1434    0.4076 H      0
    6.7302   -1.0422    1.1826 H      0
    8.5718    0.0295   -2.0763 H      0
    8.2557    0.7112   -0.5112 H      0
    7.3573    1.2833   -1.9206 H      0
  1  2  1
  2  3  3
  3  4  1
  4  5  1
  5  6  1
  6  7  4
  7  8  4
  8  9  4
  9 10  4
 10 11  4
  6 11  4
  5 12  3
  4 12  1
 12 13  1
 13 14  4
 14 15  4
 15 16  4
 16 17  4
 17 18  4
 13 18  4
  4 19  1
 19 20  1
 19 21  1
 19 22  1
  4 23  1
 23 24  1
 23 25  1
 23 26  1
  4 27  1
 27 28  1
 27 29  1
 27 30  1
  1 31  1
  1 32  1
  1 33  1
  7 34  1
  8 35  1
  9 36  1
 10 37  1
 11 38  1
 14 39  1
 15 40  1
 16 41  1
 17 42  1
 18 43  1
 20 44  1
 20 45  1
 20 46  1
 21 47  1
 21 48  1
 21 49  1
 22 50  1
 22 51  1
 22 52  1
 24 53  1
 24 54  1
 24 55  1
 25 56  1
 25 57  1
 25 58  1
 26 59  1
 26 60  1
 26 61  1
 28 62  1
 28 63  1
 28 64  1
 29 65  1
 29 66  1
 29 67  1
 30 68  1
 30 69  1
 30 70  1
M  CHG  1   4   1
M  END
$$$$
