
     RDKit          3D

 57 60  0  0  0  0  0  0  0  0999 V2000
    4.2833   -0.8912   -2.9458 C   0  0  0  0  0  0  0  0  0  0  0  0
    3.5194   -0.7407   -1.7576 O   0  0  0  0  0  0  0  0  0  0  0  0
    4.1027   -0.0699   -0.7118 C   0  0  0  0  0  0  0  0  0  0  0  0
    5.4370    0.3528   -0.6857 C   0  0  0  0  0  0  0  0  0  0  0  0
    5.9473    1.0253    0.4299 C   0  0  0  0  0  0  0  0  0  0  0  0
    5.1323    1.2810    1.5295 C   0  0  0  0  0  0  0  0  0  0  0  0
    3.8030    0.8636    1.5168 C   0  0  0  0  0  0  0  0  0  0  0  0
    3.2861    0.1890    0.4035 C   0  0  0  0  0  0  0  0  0  0  0  0
    1.9117   -0.2163    0.4333 C   0  0  0  0  0  0  0  0  0  0  0  0
    0.7540   -0.5383    0.4643 C   0  0  0  0  0  0  0  0  0  0  0  0
   -0.6354   -0.9023    0.5051 C   0  0  0  0  0  0  0  0  0  0  0  0
   -1.6016    0.0220    0.7195 C   0  0  0  0  0  0  0  0  0  0  0  0
   -1.1106    1.3760    1.0036 N   0  0  0  0  0  0  0  0  0  0  0  0
   -0.7609    2.1653   -0.1638 C   0  0  0  0  0  0  0  0  0  0  0  0
    0.3366    3.0247   -0.0437 C   0  0  0  0  0  0  0  0  0  0  0  0
    0.7055    3.8543   -1.1033 C   0  0  0  0  0  0  0  0  0  0  0  0
   -0.0384    3.8495   -2.2816 C   0  0  0  0  0  0  0  0  0  0  0  0
   -1.1547    3.0222   -2.3979 C   0  0  0  0  0  0  0  0  0  0  0  0
   -1.5237    2.1894   -1.3385 C   0  0  0  0  0  0  0  0  0  0  0  0
   -2.2901    2.1192    2.0303 S   0  0  0  0  0  0  0  0  0  0  0  0
   -1.9685    1.8397    3.4142 O   0  0  0  0  0  0  0  0  0  0  0  0
   -2.6650    3.4368    1.5644 O   0  0  0  0  0  0  0  0  0  0  0  0
   -3.5726    1.0157    1.5911 C   0  0  0  0  0  0  0  0  0  0  0  0
   -4.9199    1.2379    1.8407 C   0  0  0  0  0  0  0  0  0  0  0  0
   -5.8249    0.3083    1.3422 C   0  0  0  0  0  0  0  0  0  0  0  0
   -5.3644   -0.7802    0.5908 C   0  0  0  0  0  0  0  0  0  0  0  0
   -3.9937   -0.9584    0.3410 C   0  0  0  0  0  0  0  0  0  0  0  0
   -3.0702   -0.0693    0.8751 C   0  0  0  0  0  0  0  0  0  0  0  0
   -0.8004   -2.7744    0.3112 Si  0  0  0  0  0  4  0  0  0  0  0  0
   -1.3502   -3.2001   -1.4340 C   0  0  0  0  0  0  0  0  0  0  0  0
   -1.9598   -3.5108    1.5935 C   0  0  0  0  0  0  0  0  0  0  0  0
    0.8744   -3.6375    0.5822 C   0  0  0  0  0  0  0  0  0  0  0  0
    4.5758    0.0815   -3.3557 H   0  0  0  0  0  0  0  0  0  0  0  0
    3.6512   -1.3881   -3.6889 H   0  0  0  0  0  0  0  0  0  0  0  0
    5.1565   -1.5294   -2.7739 H   0  0  0  0  0  0  0  0  0  0  0  0
    6.1104    0.1705   -1.5164 H   0  0  0  0  0  0  0  0  0  0  0  0
    6.9858    1.3477    0.4394 H   0  0  0  0  0  0  0  0  0  0  0  0
    5.5301    1.8028    2.3961 H   0  0  0  0  0  0  0  0  0  0  0  0
    3.1688    1.0651    2.3778 H   0  0  0  0  0  0  0  0  0  0  0  0
    0.9191    3.0363    0.8739 H   0  0  0  0  0  0  0  0  0  0  0  0
    1.5702    4.5048   -1.0069 H   0  0  0  0  0  0  0  0  0  0  0  0
    0.2460    4.4979   -3.1067 H   0  0  0  0  0  0  0  0  0  0  0  0
   -1.7426    3.0313   -3.3123 H   0  0  0  0  0  0  0  0  0  0  0  0
   -2.4076    1.5709   -1.4501 H   0  0  0  0  0  0  0  0  0  0  0  0
   -5.2516    2.1107    2.3947 H   0  0  0  0  0  0  0  0  0  0  0  0
   -6.8911    0.4366    1.5164 H   0  0  0  0  0  0  0  0  0  0  0  0
   -6.0819   -1.4902    0.1818 H   0  0  0  0  0  0  0  0  0  0  0  0
   -3.6955   -1.7838   -0.2915 H   0  0  0  0  0  0  0  0  0  0  0  0
   -0.5709   -2.9296   -2.1537 H   0  0  0  0  0  0  0  0  0  0  0  0
   -2.2632   -2.6722   -1.7169 H   0  0  0  0  0  0  0  0  0  0  0  0
   -1.5354   -4.2748   -1.5239 H   0  0  0  0  0  0  0  0  0  0  0  0
   -1.7352   -3.1114    2.5888 H   0  0  0  0  0  0  0  0  0  0  0  0
   -1.8338   -4.5991    1.6307 H   0  0  0  0  0  0  0  0  0  0  0  0
   -3.0105   -3.3121    1.3704 H   0  0  0  0  0  0  0  0  0  0  0  0
    1.5983   -3.3277   -0.1764 H   0  0  0  0  0  0  0  0  0  0  0  0
    0.7476   -4.7219    0.5121 H   0  0  0  0  0  0  0  0  0  0  0  0
    1.2711   -3.3990    1.5729 H   0  0  0  0  0  0  0  0  0  0  0  0
  1  2  1  0
  2  3  1  0
  3  4  2  0
  4  5  1  0
  5  6  2  0
  6  7  1  0
  7  8  2  0
  8  9  1  0
  9 10  3  0
 10 11  1  0
 11 12  2  3
 12 13  1  0
 13 14  1  0
 14 15  2  0
 15 16  1  0
 16 17  2  0
 17 18  1  0
 18 19  2  0
 13 20  1  0
 20 21  2  0
 20 22  2  0
 20 23  1  0
 23 24  2  0
 24 25  1  0
 25 26  2  0
 26 27  1  0
 27 28  2  0
 11 29  1  0
 29 30  1  0
 29 31  1  0
 29 32  1  0
  8  3  1  0
 28 12  1  0
 19 14  1  0
 28 23  1  0
  1 33  1  0
  1 34  1  0
  1 35  1  0
  4 36  1  0
  5 37  1  0
  6 38  1  0
  7 39  1  0
 15 40  1  0
 16 41  1  0
 17 42  1  0
 18 43  1  0
 19 44  1  0
 24 45  1  0
 25 46  1  0
 26 47  1  0
 27 48  1  0
 30 49  1  0
 30 50  1  0
 30 51  1  0
 31 52  1  0
 31 53  1  0
 31 54  1  0
 32 55  1  0
 32 56  1  0
 32 57  1  0
M  END
