
  --CCDC--092525    3D                              

 53 52  0  0  0  0  0  0  0  0999 V2000
    0.0131    0.0865   -0.1043 C      0
    1.9944    0.1017   -0.7999 Rh     0
    1.6196    2.3798   -2.4193 I      0
    2.6945    1.8819    1.2731 I      0
    2.3061   -1.5916    0.4000 C      0
    2.4754   -2.5113    1.0517 O      0
    1.2532   -1.1969   -2.7740 P      0
   -0.5217   -0.8971   -2.9843 C      0
   -1.1354   -1.5850   -4.1942 C      0
    1.5038   -2.9758   -2.5547 C      0
    0.5009   -3.5848   -1.5845 C      0
    2.1595   -0.6571   -4.2477 C      0
    1.9841   -1.5949   -5.4341 C      0
    4.3794   -0.0724   -1.4460 P      0
    4.8257   -1.6674   -2.1907 C      0
    5.0513   -2.8133   -1.2161 C      0
    5.4754    0.3247   -0.0564 C      0
    5.2792   -0.5312    1.1886 C      0
    4.6987    1.2126   -2.6806 C      0
    6.1432    1.1776   -3.1559 C      0
   -0.5786    0.7992   -0.6751 H      0
   -0.0027    0.3627    0.9485 H      0
   -0.4057   -0.9105   -0.2223 H      0
   -0.7009    0.1822   -3.0600 H      0
   -1.0393   -1.2509   -2.0848 H      0
   -2.2159   -1.6462   -4.0859 H      0
   -0.7492   -2.5954   -4.3077 H      0
   -0.9319   -1.0278   -5.1041 H      0
    2.5288   -3.1665   -2.2138 H      0
    1.3798   -3.4700   -3.5259 H      0
    0.8034   -4.5905   -1.3013 H      0
   -0.4831   -3.6481   -2.0441 H      0
    0.4070   -2.9940   -0.6782 H      0
    3.2281   -0.6186   -4.0183 H      0
    1.8474    0.3584   -4.5204 H      0
    0.9549   -1.6273   -5.7760 H      0
    2.2828   -2.6069   -5.1692 H      0
    2.6016   -1.2712   -6.2692 H      0
    5.7542   -1.5316   -2.7590 H      0
    4.0515   -1.9688   -2.9044 H      0
    4.1962   -2.9631   -0.5635 H      0
    5.2215   -3.7407   -1.7592 H      0
    5.9305   -2.6309   -0.6038 H      0
    5.3102    1.3725    0.2225 H      0
    6.5165    0.2404   -0.3907 H      0
    4.2677   -0.4435    1.5731 H      0
    5.9593   -0.2109    1.9751 H      0
    5.4740   -1.5809    0.9954 H      0
    4.4865    2.1945   -2.2399 H      0
    4.0308    1.0889   -3.5402 H      0
    6.3753    0.2188   -3.6148 H      0
    6.8269    1.3292   -2.3233 H      0
    6.3260    1.9584   -3.8913 H      0
  1  2  1
  2  3  1
  2  4  1
  2  5  1
  5  6  3
  2  7  1
  7  8  1
  8  9  1
  7 10  1
 10 11  1
  7 12  1
 12 13  1
  2 14  1
 14 15  1
 15 16  1
 14 17  1
 17 18  1
 14 19  1
 19 20  1
  1 21  1
  1 22  1
  1 23  1
  8 24  1
  8 25  1
  9 26  1
  9 27  1
  9 28  1
 10 29  1
 10 30  1
 11 31  1
 11 32  1
 11 33  1
 12 34  1
 12 35  1
 13 36  1
 13 37  1
 13 38  1
 15 39  1
 15 40  1
 16 41  1
 16 42  1
 16 43  1
 17 44  1
 17 45  1
 18 46  1
 18 47  1
 18 48  1
 19 49  1
 19 50  1
 20 51  1
 20 52  1
 20 53  1
M  END
$$$$
