
 OpenBabel09252514293D

 32 35  0  0  0  0  0  0  0  0999 V2000
    1.6997    1.1495   -0.8265 H   0  0  0  0  0  0  0  0  0  0  0  0
    2.2359    0.3759   -0.2876 C   0  0  0  0  0  3  0  0  0  0  0  0
    1.6352   -0.9394   -0.1707 C   0  0  0  0  0  3  0  0  0  0  0  0
    0.6601   -1.1278   -0.6042 H   0  0  0  0  0  0  0  0  0  0  0  0
    2.4461   -2.0523    0.2833 C   0  0  0  0  0  3  0  0  0  0  0  0
    1.9882   -3.0246    0.4125 H   0  0  0  0  0  0  0  0  0  0  0  0
    3.8722   -1.8668    0.4831 C   0  0  0  0  0  3  0  0  0  0  0  0
    4.5045   -0.5292    0.5147 C   0  0  0  0  0  3  0  0  0  0  0  0
    3.6611    0.5579   -0.0292 C   0  0  0  0  0  3  0  0  0  0  0  0
    4.1325    1.3746   -0.5579 H   0  0  0  0  0  0  0  0  0  0  0  0
    5.9483   -0.4240    0.8627 C   0  0  0  0  0  0  0  0  0  0  0  0
    6.6751   -1.5749    0.8267 C   0  0  0  0  0  0  0  0  0  0  0  0
    6.0472   -2.9030    0.5328 C   0  0  0  0  0  0  0  0  0  0  0  0
    6.7152   -3.9257    0.4002 O   0  0  0  0  0  0  0  0  0  0  0  0
    4.6867   -2.9548    0.4747 N   0  0  0  0  0  0  0  0  0  0  0  0
    4.2987   -3.8770    0.3296 H   0  0  0  0  0  0  0  0  0  0  0  0
    8.1503   -1.6438    1.1384 C   0  0  0  0  0  0  0  0  0  0  0  0
    8.7091   -1.4383    0.2160 H   0  0  0  0  0  0  0  0  0  0  0  0
    8.4486   -2.6462    1.4665 H   0  0  0  0  0  0  0  0  0  0  0  0
    8.5646   -0.6715    2.2338 C   0  0  0  0  0  0  0  0  0  0  0  0
    9.6600   -0.6344    2.2763 H   0  0  0  0  0  0  0  0  0  0  0  0
    8.2203   -1.0435    3.2075 H   0  0  0  0  0  0  0  0  0  0  0  0
    7.9945    0.6893    2.0104 C   0  0  0  0  0  3  0  0  0  0  0  0
    8.6740    1.8363    2.6014 C   0  0  0  0  0  3  0  0  0  0  0  0
    9.6330    1.7132    3.0903 H   0  0  0  0  0  0  0  0  0  0  0  0
    8.0316    3.1325    2.6220 C   0  0  0  0  0  3  0  0  0  0  0  0
    8.4904    3.9613    3.1458 H   0  0  0  0  0  0  0  0  0  0  0  0
    6.7317    3.2859    2.0090 C   0  0  0  0  0  3  0  0  0  0  0  0
    6.1980    4.2242    2.0953 H   0  0  0  0  0  0  0  0  0  0  0  0
    6.1433    2.1863    1.2589 C   0  0  0  0  0  3  0  0  0  0  0  0
    5.4641    2.4724    0.4731 H   0  0  0  0  0  0  0  0  0  0  0  0
    6.6571    0.8031    1.3555 C   0  0  0  0  0  3  0  0  0  0  0  0
  1  2  1  0  0  0  0
  2  3  1  0  0  0  0
  2  9  1  0  0  0  0
  3  4  1  0  0  0  0
  3  5  1  0  0  0  0
  5  6  1  0  0  0  0
  5  7  1  0  0  0  0
  7  8  1  0  0  0  0
  7 15  1  0  0  0  0
  8  9  1  0  0  0  0
  8 11  1  0  0  0  0
  9 10  1  0  0  0  0
 11 12  2  0  0  0  0
 11 32  1  0  0  0  0
 12 13  1  0  0  0  0
 12 17  1  0  0  0  0
 13 14  2  0  0  0  0
 13 15  1  0  0  0  0
 15 16  1  0  0  0  0
 17 18  1  0  0  0  0
 17 19  1  0  0  0  0
 17 20  1  0  0  0  0
 20 21  1  0  0  0  0
 20 22  1  0  0  0  0
 20 23  1  0  0  0  0
 23 24  1  0  0  0  0
 23 32  1  0  0  0  0
 24 25  1  0  0  0  0
 24 26  1  0  0  0  0
 26 27  1  0  0  0  0
 26 28  1  0  0  0  0
 28 29  1  0  0  0  0
 28 30  1  0  0  0  0
 30 31  1  0  0  0  0
 30 32  1  0  0  0  0
M  END
$$$$
