
 OpenBabel09252513163D

 35 38  0  0  1  0  0  0  0  0999 V2000
    2.8211    0.2035    0.9191 H   0  0  0  0  0  0  0  0  0  0  0  0
    2.7909   -0.0319   -0.1391 C   0  0  0  0  0  3  0  0  0  0  0  0
    2.2096   -1.2966   -0.5738 C   0  0  0  0  0  3  0  0  0  0  0  0
    2.0912   -2.0748    0.1677 H   0  0  0  0  0  0  0  0  0  0  0  0
    1.6009   -1.3886   -1.9140 C   0  0  0  0  0  3  0  0  0  0  0  0
    0.2347   -1.6976   -1.9642 N   0  0  0  0  0  0  0  0  0  0  0  0
   -0.6639   -0.6118   -2.2753 C   0  0  0  0  0  0  0  0  0  0  0  0
   -0.5719    0.2247   -3.1583 O   0  0  0  0  0  0  0  0  0  0  0  0
   -1.6549   -0.5143   -1.1560 C   0  0  2  0  0  0  0  0  0  0  0  0
   -0.7595   -0.6727   -0.5187 H   0  0  0  0  0  0  0  0  0  0  0  0
   -2.0495    0.3201    0.0440 C   0  0  0  0  0  0  0  0  0  0  0  0
   -2.7816    1.0970   -0.2023 H   0  0  0  0  0  0  0  0  0  0  0  0
   -1.2049    0.8137    0.5479 H   0  0  0  0  0  0  0  0  0  0  0  0
   -2.6392   -0.8751    0.8671 C   0  0  2  0  0  0  0  0  0  0  0  0
   -3.2372   -0.2838    2.5763 Br  0  0  0  0  0  0  0  0  0  0  0  0
   -1.6232   -1.9737    0.9505 O   0  0  0  0  0  0  0  0  0  0  0  0
   -1.6524   -2.6964   -0.3355 C   0  0  2  0  0  0  0  0  0  0  0  0
   -2.2267   -4.3540   -0.0313 Cl  0  0  0  0  0  0  0  0  0  0  0  0
   -0.2843   -2.8541   -1.1335 C   0  0  0  0  0  0  0  0  0  0  0  0
   -0.4326   -3.6290   -1.8999 H   0  0  0  0  0  0  0  0  0  0  0  0
    0.4882   -3.2321   -0.4600 H   0  0  0  0  0  0  0  0  0  0  0  0
   -2.5776   -1.7817   -1.1104 C   0  0  1  0  0  0  0  0  0  0  0  0
   -2.9078   -2.1467   -2.0860 H   0  0  0  0  0  0  0  0  0  0  0  0
   -3.6737   -1.3346   -0.1459 C   0  0  1  0  0  0  0  0  0  0  0  0
   -4.2171   -0.4785   -0.5703 H   0  0  0  0  0  0  0  0  0  0  0  0
   -5.1802   -2.6579    0.4124 I   0  0  0  0  0  0  0  0  0  0  0  0
    2.1518   -0.4905   -2.9335 C   0  0  0  0  0  3  0  0  0  0  0  0
    1.9160   -0.6742   -3.9766 H   0  0  0  0  0  0  0  0  0  0  0  0
    2.7811    0.7702   -2.5348 C   0  0  0  0  0  3  0  0  0  0  0  0
    3.0152    1.8579   -3.5313 C   0  0  0  0  0  0  0  0  0  0  0  0
    4.3373    2.1562   -3.6345 F   0  0  0  0  0  0  0  0  0  0  0  0
    2.5924    1.5418   -4.7821 F   0  0  0  0  0  0  0  0  0  0  0  0
    2.3863    3.0103   -3.1811 F   0  0  0  0  0  0  0  0  0  0  0  0
    3.0622    1.0100   -1.1169 C   0  0  0  0  0  3  0  0  0  0  0  0
    3.2587    2.0208   -0.7730 H   0  0  0  0  0  0  0  0  0  0  0  0
  1  2  1  0  0  0  0
  2  3  1  0  0  0  0
  2 34  1  0  0  0  0
  3  4  1  0  0  0  0
  3  5  1  0  0  0  0
  5 27  1  0  0  0  0
  5  6  1  0  0  0  0
  6  7  1  0  0  0  0
  6 19  1  0  0  0  0
  7  9  1  0  0  0  0
  7  8  2  0  0  0  0
  9 11  1  0  0  0  0
  9 22  1  0  0  0  0
  9 10  1  6  0  0  0
 11 14  1  0  0  0  0
 11 12  1  0  0  0  0
 11 13  1  0  0  0  0
 14 16  1  0  0  0  0
 14 24  1  0  0  0  0
 14 15  1  1  0  0  0
 16 17  1  0  0  0  0
 17 19  1  0  0  0  0
 17 22  1  0  0  0  0
 17 18  1  1  0  0  0
 19 20  1  0  0  0  0
 19 21  1  0  0  0  0
 22 24  1  0  0  0  0
 22 23  1  6  0  0  0
 24 26  1  0  0  0  0
 24 25  1  6  0  0  0
 27 28  1  0  0  0  0
 27 29  1  0  0  0  0
 29 30  1  0  0  0  0
 29 34  1  0  0  0  0
 30 31  1  0  0  0  0
 30 32  1  0  0  0  0
 30 33  1  0  0  0  0
 34 35  1  0  0  0  0
M  END
$$$$
