
     RDKit          3D

  0  0  0  0  0  0  0  0  0  0999 V3000
M  V30 BEGIN CTAB
M  V30 COUNTS 114 121 0 0 0
M  V30 BEGIN ATOM
M  V30 1 C 1.144141 -1.914855 2.666388 0
M  V30 2 O 0.096846 -1.615500 1.962832 0
M  V30 3 C -1.120374 -1.633875 2.703514 0
M  V30 4 C -1.164872 -3.130274 2.639487 0
M  V30 5 O -0.875396 -3.077768 1.221377 0
M  V30 6 C -1.025128 -4.339469 0.823868 0
M  V30 7 Eu -0.283853 -1.691100 0.039672 0 VAL=7
M  V30 8 N -2.262511 -1.704370 -0.582885 0
M  V30 9 C -3.322856 -1.997900 -0.003795 0
M  V30 10 S -4.623210 -2.917945 -0.118497 0
M  V30 11 N 1.188851 -0.176014 -0.109655 0
M  V30 12 C 2.524718 0.040067 0.590337 0
M  V30 13 C 2.377854 0.784841 1.808806 0
M  V30 14 C 3.546682 0.744146 2.657565 0
M  V30 15 C 4.748636 0.062973 2.353490 0
M  V30 16 C 4.694289 -0.570563 1.136236 0
M  V30 17 C 3.649403 -0.636202 0.201697 0
M  V30 18 C 4.073965 -1.336209 -0.938951 0
M  V30 19 C 5.652581 -1.471528 -0.986457 0
M  V30 20 C 3.860232 -0.793652 -2.332985 0
M  V30 21 C 1.542558 1.782819 2.389310 0
M  V30 22 C 1.392604 1.871090 3.862211 0
M  V30 23 C 0.757900 2.828321 1.633778 0
M  V30 24 C 0.896110 0.951634 -0.852078 0
M  V30 25 C -0.366561 1.199223 -0.838819 0
M  V30 26 N -1.123011 0.284154 -0.110016 0
M  V30 27 C -2.450566 0.822351 0.219534 0
M  V30 28 C -3.213859 0.571950 -1.026781 0
M  V30 29 C -4.517281 1.094713 -0.917880 0
M  V30 30 C -5.009956 1.761105 0.222731 0
M  V30 31 C -4.116455 1.887673 1.291954 0
M  V30 32 C -2.839716 1.429897 1.319738 0
M  V30 33 C -2.264903 1.516905 2.630673 0
M  V30 34 C -2.512951 2.950784 3.166536 0
M  V30 35 C -3.146813 0.711691 3.653119 0
M  V30 36 C -3.104990 0.115478 -2.421535 0
M  V30 37 C -4.424543 -0.648258 -2.761192 0
M  V30 38 C -3.242911 1.289596 -3.402877 0
M  V30 39 C -0.543856 2.442878 -1.577514 0
M  V30 40 C -1.493758 3.362763 -1.925054 0
M  V30 41 C -1.326589 4.526323 -2.606169 0
M  V30 42 C -0.058318 4.887503 -3.026034 0
M  V30 43 C 0.974405 4.028876 -2.716061 0
M  V30 44 C 2.272222 4.361822 -3.040973 0
M  V30 45 C 3.212564 3.453745 -2.602901 0
M  V30 46 C 2.881528 2.331494 -1.913841 0
M  V30 47 C 1.597623 1.981571 -1.587782 0
M  V30 48 C 0.672826 2.899241 -2.031342 0
M  V30 49 O 1.244568 -2.654136 -0.651844 0
M  V30 50 C 1.773039 -3.702589 0.075875 0
M  V30 51 C 1.476879 -3.223236 -2.000525 0
M  V30 52 C 0.618572 -2.166234 -2.649621 0
M  V30 53 O -0.434963 -2.540826 -1.770345 0
M  V30 54 C -1.073800 -3.659737 -2.201877 0
M  V30 55 H 2.131642 -1.919007 2.167047 0
M  V30 56 H 1.193394 -1.184178 3.546954 0
M  V30 57 H 1.098917 -2.890837 3.177878 0
M  V30 58 H -1.923955 -1.186011 2.097897 0
M  V30 59 H -0.892994 -1.284449 3.664259 0
M  V30 60 H -2.209933 -3.521976 2.749947 0
M  V30 61 H -0.416843 -3.731612 3.056145 0
M  V30 62 H -2.116709 -4.615978 1.045060 0
M  V30 63 H -0.731135 -4.729188 -0.120265 0
M  V30 64 H -0.417879 -4.955033 1.575642 0
M  V30 65 H 3.603608 1.243018 3.652834 0
M  V30 66 H 5.553361 0.084609 3.049850 0
M  V30 67 H 5.694708 -1.040291 1.054371 0
M  V30 68 H 3.955283 -2.447202 -0.941183 0
M  V30 69 H 5.915902 -2.286515 -0.316673 0
M  V30 70 H 5.892986 -1.826727 -2.021950 0
M  V30 71 H 6.122297 -0.506392 -0.850259 0
M  V30 72 H 4.699459 -0.076818 -2.569773 0
M  V30 73 H 2.889949 -0.374063 -2.516672 0
M  V30 74 H 4.086528 -1.668311 -3.031859 0
M  V30 75 H 2.491792 2.640988 2.453951 0
M  V30 76 H 1.363654 0.853407 4.289483 0
M  V30 77 H 2.155142 2.498985 4.326632 0
M  V30 78 H 0.416788 2.308714 4.184475 0
M  V30 79 H 1.330575 3.293696 0.800228 0
M  V30 80 H -0.187513 2.476878 1.320365 0
M  V30 81 H 0.521681 3.706485 2.324715 0
M  V30 82 H -5.330824 1.114242 -1.657692 0
M  V30 83 H -6.038200 2.156978 0.277722 0
M  V30 84 H -4.615239 2.405090 2.109841 0
M  V30 85 H -1.271946 1.239862 2.856605 0
M  V30 86 H -1.915044 3.021734 4.131231 0
M  V30 87 H -3.527462 3.151454 3.428157 0
M  V30 88 H -1.999243 3.648358 2.491835 0
M  V30 89 H -2.532084 0.411146 4.489967 0
M  V30 90 H -3.683580 -0.073406 3.109354 0
M  V30 91 H -3.908912 1.423868 4.007844 0
M  V30 92 H -2.299333 -0.522224 -2.712774 0
M  V30 93 H -4.975534 -0.185221 -3.561598 0
M  V30 94 H -4.181304 -1.694892 -3.068638 0
M  V30 95 H -5.069976 -0.683907 -1.874116 0
M  V30 96 H -3.877896 0.889628 -4.263225 0
M  V30 97 H -2.307202 1.578255 -3.873814 0
M  V30 98 H -3.870766 2.078346 -2.971867 0
M  V30 99 H -2.481125 3.161153 -1.557974 0
M  V30 100 H -2.193503 5.145038 -2.804736 0
M  V30 101 H 0.126961 5.795627 -3.568532 0
M  V30 102 H 2.535730 5.236182 -3.575910 0
M  V30 103 H 4.270261 3.578844 -2.776752 0
M  V30 104 H 3.634228 1.676040 -1.528148 0
M  V30 105 H 1.559282 -3.700978 1.143020 0
M  V30 106 H 1.363473 -4.654971 -0.357140 0
M  V30 107 H 2.879753 -3.726672 -0.026189 0
M  V30 108 H 1.044276 -4.217264 -1.927598 0
M  V30 109 H 2.497706 -3.207050 -2.288314 0
M  V30 110 H 0.276986 -2.540169 -3.592770 0
M  V30 111 H 0.883056 -1.144408 -2.536896 0
M  V30 112 H -1.467019 -3.262926 -3.223092 0
M  V30 113 H -0.591174 -4.599006 -2.359790 0
M  V30 114 H -2.082645 -3.736332 -1.671551 0
M  V30 END ATOM
M  V30 BEGIN BOND
M  V30 1 1 1 2
M  V30 2 1 2 3
M  V30 3 1 3 4
M  V30 4 1 4 5
M  V30 5 1 5 6
M  V30 6 9 5 7
M  V30 7 1 7 8
M  V30 8 2 8 9
M  V30 9 2 9 10
M  V30 10 1 7 11
M  V30 11 1 11 12
M  V30 12 2 12 13
M  V30 13 1 13 14
M  V30 14 2 14 15
M  V30 15 1 15 16
M  V30 16 2 16 17
M  V30 17 1 17 18
M  V30 18 1 18 19
M  V30 19 1 18 20
M  V30 20 1 13 21
M  V30 21 1 21 22
M  V30 22 1 21 23
M  V30 23 1 11 24
M  V30 24 2 24 25
M  V30 25 1 25 26
M  V30 26 1 26 27
M  V30 27 2 27 28
M  V30 28 1 28 29
M  V30 29 2 29 30
M  V30 30 1 30 31
M  V30 31 2 31 32
M  V30 32 1 32 33
M  V30 33 1 33 34
M  V30 34 1 33 35
M  V30 35 1 28 36
M  V30 36 1 36 37
M  V30 37 1 36 38
M  V30 38 1 25 39
M  V30 39 2 39 40
M  V30 40 1 40 41
M  V30 41 2 41 42
M  V30 42 1 42 43
M  V30 43 2 43 44
M  V30 44 1 44 45
M  V30 45 2 45 46
M  V30 46 1 46 47
M  V30 47 2 47 48
M  V30 48 9 49 7
M  V30 49 1 49 50
M  V30 50 1 49 51
M  V30 51 1 51 52
M  V30 52 1 52 53
M  V30 53 1 53 54
M  V30 54 9 2 7
M  V30 55 1 17 12
M  V30 56 1 47 24
M  V30 57 1 26 7
M  V30 58 1 32 27
M  V30 59 1 48 39
M  V30 60 9 53 7
M  V30 61 1 48 43
M  V30 62 1 1 55
M  V30 63 1 1 56
M  V30 64 1 1 57
M  V30 65 1 3 58
M  V30 66 1 3 59
M  V30 67 1 4 60
M  V30 68 1 4 61
M  V30 69 1 6 62
M  V30 70 1 6 63
M  V30 71 1 6 64
M  V30 72 1 14 65
M  V30 73 1 15 66
M  V30 74 1 16 67
M  V30 75 1 18 68
M  V30 76 1 19 69
M  V30 77 1 19 70
M  V30 78 1 19 71
M  V30 79 1 20 72
M  V30 80 1 20 73
M  V30 81 1 20 74
M  V30 82 1 21 75
M  V30 83 1 22 76
M  V30 84 1 22 77
M  V30 85 1 22 78
M  V30 86 1 23 79
M  V30 87 1 23 80
M  V30 88 1 23 81
M  V30 89 1 29 82
M  V30 90 1 30 83
M  V30 91 1 31 84
M  V30 92 1 33 85
M  V30 93 1 34 86
M  V30 94 1 34 87
M  V30 95 1 34 88
M  V30 96 1 35 89
M  V30 97 1 35 90
M  V30 98 1 35 91
M  V30 99 1 36 92
M  V30 100 1 37 93
M  V30 101 1 37 94
M  V30 102 1 37 95
M  V30 103 1 38 96
M  V30 104 1 38 97
M  V30 105 1 38 98
M  V30 106 1 40 99
M  V30 107 1 41 100
M  V30 108 1 42 101
M  V30 109 1 44 102
M  V30 110 1 45 103
M  V30 111 1 46 104
M  V30 112 1 50 105
M  V30 113 1 50 106
M  V30 114 1 50 107
M  V30 115 1 51 108
M  V30 116 1 51 109
M  V30 117 1 52 110
M  V30 118 1 52 111
M  V30 119 1 54 112
M  V30 120 1 54 113
M  V30 121 1 54 114
M  V30 END BOND
M  V30 END CTAB
M  END
