
  --CCDC--092525    3D                              

 70 72  0  0  0  0  0  0  0  0999 V2000
    0.5914   -0.6110    0.9641 C      0
    1.8131   -0.4594    0.1863 C      0
    2.7592   -0.3302   -0.4383 N      0
    4.3591   -0.1118   -1.4946 Co     3
    5.4273    0.4570   -3.0032 C      0
    6.8357    0.5123   -3.5746 C      0
    7.8955   -0.1055   -2.9197 C      0
    9.1777   -0.0917   -3.4423 C      0
    9.4343    0.5443   -4.6348 C      0
    8.4074    1.1805   -5.2930 C      0
    7.1268    1.1756   -4.7647 C      0
    4.2576    0.7558   -3.2034 C      0
    3.2411    1.3885   -4.1198 C      0
    1.9313    1.5047   -3.6617 C      0
    0.9500    2.0978   -4.4377 C      0
    1.2585    2.5872   -5.6866 C      0
    2.5438    2.4669   -6.1656 C      0
    3.5263    1.8624   -5.3983 C      0
    5.8747   -1.1267   -0.0621 P      0
    6.6637   -2.5841   -0.7939 C      0
    5.0694   -1.7281    1.4459 C      0
    7.1691    0.0068    0.5056 C      0
    4.3593    1.8023   -0.1977 P      0
    2.9194    2.7782   -0.6944 C      0
    5.8087    2.8380   -0.5209 C      0
    4.1911    1.5049    1.5789 C      0
    3.5879   -2.1769   -2.1954 P      0
    4.6926   -2.9368   -3.4121 C      0
    2.0188   -1.8915   -3.0487 C      0
    3.2397   -3.3434   -0.8573 C      0
   -0.0909    0.2161    0.7794 H      0
    0.8147   -0.6350    2.0286 H      0
    0.0821   -1.5366    0.7039 H      0
    7.7175   -0.6097   -1.9828 H      0
    9.9833   -0.5860   -2.9097 H      0
   10.4368    0.5470   -5.0500 H      0
    8.6026    1.6904   -6.2307 H      0
    6.3481    1.7058   -5.2928 H      0
    1.6759    1.1257   -2.6777 H      0
   -0.0638    2.1782   -4.0597 H      0
    0.4927    3.0622   -6.2909 H      0
    2.7885    2.8461   -7.1522 H      0
    4.5184    1.7576   -5.8136 H      0
    6.0419   -3.4662   -0.6709 H      0
    7.6190   -2.7823   -0.3123 H      0
    6.8430   -2.4701   -1.8587 H      0
    5.4120   -2.7339    1.6781 H      0
    3.9903   -1.7646    1.3408 H      0
    5.2918   -1.1008    2.3034 H      0
    7.7175    0.4575   -0.3159 H      0
    6.7452    0.8198    1.0885 H      0
    7.8833   -0.5166    1.1378 H      0
    2.9690    3.0273   -1.7525 H      0
    2.8688    3.7070   -0.1302 H      0
    1.9990    2.2248   -0.5198 H      0
    6.3683    2.4567   -1.3724 H      0
    6.4800    2.8761    0.3316 H      0
    5.5043    3.8572   -0.7497 H      0
    3.2202    1.0698    1.8067 H      0
    4.2783    2.4386    2.1307 H      0
    4.9586    0.8301    1.9462 H      0
    4.1169   -3.3802   -4.2219 H      0
    5.3045   -3.7191   -2.9745 H      0
    5.3579   -2.1920   -3.8438 H      0
    1.6053   -2.8274   -3.4190 H      0
    1.2907   -1.4411   -2.3774 H      0
    2.1569   -1.2235   -3.8963 H      0
    2.9615   -4.3144   -1.2620 H      0
    2.4168   -2.9889   -0.2402 H      0
    4.1045   -3.4867   -0.2161 H      0
  1  2  1
  2  3  3
  3  4  1
  4  5  1
  5  6  1
  6  7  4
  7  8  4
  8  9  4
  9 10  4
 10 11  4
  6 11  4
  5 12  3
  4 12  1
 12 13  1
 13 14  4
 14 15  4
 15 16  4
 16 17  4
 17 18  4
 13 18  4
  4 19  1
 19 20  1
 19 21  1
 19 22  1
  4 23  1
 23 24  1
 23 25  1
 23 26  1
  4 27  1
 27 28  1
 27 29  1
 27 30  1
  1 31  1
  1 32  1
  1 33  1
  7 34  1
  8 35  1
  9 36  1
 10 37  1
 11 38  1
 14 39  1
 15 40  1
 16 41  1
 17 42  1
 18 43  1
 20 44  1
 20 45  1
 20 46  1
 21 47  1
 21 48  1
 21 49  1
 22 50  1
 22 51  1
 22 52  1
 24 53  1
 24 54  1
 24 55  1
 25 56  1
 25 57  1
 25 58  1
 26 59  1
 26 60  1
 26 61  1
 28 62  1
 28 63  1
 28 64  1
 29 65  1
 29 66  1
 29 67  1
 30 68  1
 30 69  1
 30 70  1
M  CHG  1   4   1
M  END
$$$$
